@<TRIPOS>MOLECULE
DKZYXHCYPUVGAF-JCNLHEQBSA-N_-7.628
62   65    1
SMALL
USER_CHARGES


@<TRIPOS>ATOM
      1 C1         -5.9100   -1.3200  -13.2990 C.3       1 UNK         0.0000 
      2 C2         -6.1430    0.1550  -13.1270 C.2       1 UNK         0.0000 
      3 O3         -6.5310    0.7040  -14.1810 O.2       1 UNK         0.0000 
      4 C4         -5.9170    0.7780  -11.8500 C.ar      1 UNK         0.0000 
      5 C5         -6.8200    0.5230  -10.8100 C.ar      1 UNK         0.0000 
      6 N6         -6.6320    1.0580   -9.5930 N.ar      1 UNK         0.0000 
      7 C7         -5.6020    1.8470   -9.2980 C.ar      1 UNK         0.0000 
      8 C8         -5.4000    2.4000   -8.0330 C.ar      1 UNK         0.0000 
      9 C9         -4.2770    3.2150   -7.8260 C.ar      1 UNK         0.0000 
     10 C10        -3.3910    3.4720   -8.8250 C.ar      1 UNK         0.0000 
     11 C11        -2.2340    4.3180   -8.6000 C.ar      1 UNK         0.0000 
     12 C12        -1.6690    5.1540   -9.5290 C.ar      1 UNK         0.0000 
     13 C13        -0.5520    5.9440   -9.2490 C.ar      1 UNK         0.0000 
     14 Cl14        0.1420    6.9850  -10.4710 Cl        1 UNK         0.0000 
     15 C15         0.0380    5.9120   -7.9990 C.ar      1 UNK         0.0000 
     16 O16         1.1480    6.6850   -7.6910 O.3       1 UNK         0.0000 
     17 C17        -0.5300    5.0710   -7.0640 C.ar      1 UNK         0.0000 
     18 Cl18        0.2110    5.0160   -5.4770 Cl        1 UNK         0.0000 
     19 C19        -1.6260    4.2940   -7.3360 C.ar      1 UNK         0.0000 
     20 N20        -3.6280    2.9160  -10.0270 N.ar      1 UNK         0.0000 
     21 C21        -4.6940    2.1280  -10.2710 C.ar      1 UNK         0.0000 
     22 C22        -4.8390    1.5960  -11.5680 C.ar      1 UNK         0.0000 
     23 N23        -3.9020    1.9040  -12.5650 N.4       1 UNK         0.0000 
     24 C24        -2.5980    1.3540  -12.4360 C.3       1 UNK         0.0000 
     25 C25        -2.7220   -0.1740  -12.2880 C.3       1 UNK         0.0000 
     26 C26        -1.3560   -0.7200  -12.7700 C.3       1 UNK         0.0000 
     27 C27        -0.2590   -0.0520  -12.0530 C.3       1 UNK         0.0000 
     28 C28         0.7690    0.7180  -12.7750 C.3       1 UNK         0.0000 
     29 N29         0.6380    0.7660  -14.1990 N.3       1 UNK         0.0000 
     30 C30         2.0000    1.1940  -14.6940 C.3       1 UNK         0.0000 
     31 C31        -0.2080    1.8870  -14.6370 C.3       1 UNK         0.0000 
     32 C32        -0.7840    0.7480  -10.8360 C.3       1 UNK         0.0000 
     33 C33        -1.7900    1.8050  -11.2690 C.3       1 UNK         0.0000 
     34 H34        -5.8346   -1.7970  -12.3107 H         1 UNK         0.0000 
     35 H35        -6.7496   -1.7613  -13.8561 H         1 UNK         0.0000 
     36 H36        -4.9753   -1.4811  -13.8561 H         1 UNK         0.0000 
     37 H37        -7.6921   -0.1222  -10.9922 H         1 UNK         0.0000 
     38 H38        -6.1072    2.2009   -7.2143 H         1 UNK         0.0000 
     39 H39        -4.1093    3.6564   -6.8325 H         1 UNK         0.0000 
     40 H40        -2.1132    5.2042  -10.5341 H         1 UNK         0.0000 
     41 H41         2.0720    6.4950   -8.0080 H         1 UNK         0.0000 
     42 H42        -2.0352    3.6414   -6.5508 H         1 UNK         0.0000 
     43 H43        -3.8510    2.9200  -12.8050 H         1 UNK         0.0000 
     44 H44        -4.3150    1.4920  -13.4660 H         1 UNK         0.0000 
     45 H45        -2.0759    1.7004  -13.3401 H         1 UNK         0.0000 
     46 H46        -2.9031   -0.4499  -11.2387 H         1 UNK         0.0000 
     47 H47        -3.5643   -0.5840  -12.8646 H         1 UNK         0.0000 
     48 H48        -1.3093   -1.8021  -12.5782 H         1 UNK         0.0000 
     49 H49        -1.2517   -0.5241  -13.8474 H         1 UNK         0.0000 
     50 H50         0.3266   -0.9371  -11.7636 H         1 UNK         0.0000 
     51 H51         0.7391    1.7517  -12.4001 H         1 UNK         0.0000 
     52 H52         1.7174    0.1945  -12.5840 H         1 UNK         0.0000 
     53 H53         2.6546    1.3997  -13.8342 H         1 UNK         0.0000 
     54 H54         2.4377    0.3901  -15.3040 H         1 UNK         0.0000 
     55 H55         1.8992    2.1038  -15.3040 H         1 UNK         0.0000 
     56 H56        -0.6049    2.4129  -13.7561 H         1 UNK         0.0000 
     57 H57         0.3910    2.5842  -15.2412 H         1 UNK         0.0000 
     58 H58        -1.0428    1.5021  -15.2412 H         1 UNK         0.0000 
     59 H59        -1.2703    0.0554  -10.1333 H         1 UNK         0.0000 
     60 H60         0.0674    1.2517  -10.3548 H         1 UNK         0.0000 
     61 H61        -2.4667    2.0181  -10.4284 H         1 UNK         0.0000 
     62 H62        -1.2331    2.7058  -11.5662 H         1 UNK         0.0000 
@<TRIPOS>BOND
     1    1    2 1    
     2    1   34 1    
     3    1   35 1    
     4    1   36 1    
     5    2    3 2    
     6    2    4 1    
     7    4    5 ar   
     8    4   22 ar   
     9    5    6 ar   
    10    5   37 1    
    11    6    7 ar   
    12    7    8 ar   
    13    7   21 ar   
    14    8    9 ar   
    15    8   38 1    
    16    9   10 ar   
    17    9   39 1    
    18   10   11 1    
    19   10   20 ar   
    20   11   12 ar   
    21   11   19 ar   
    22   12   13 ar   
    23   12   40 1    
    24   13   14 1    
    25   13   15 ar   
    26   15   16 1    
    27   15   17 ar   
    28   16   41 1    
    29   17   18 1    
    30   17   19 ar   
    31   19   42 1    
    32   20   21 ar   
    33   21   22 ar   
    34   22   23 1    
    35   23   24 1    
    36   23   43 1    
    37   23   44 1    
    38   24   25 1    
    39   24   33 1    
    40   24   45 1    
    41   25   26 1    
    42   25   46 1    
    43   25   47 1    
    44   26   27 1    
    45   26   48 1    
    46   26   49 1    
    47   27   28 1    
    48   27   32 1    
    49   27   50 1    
    50   28   29 1    
    51   28   51 1    
    52   28   52 1    
    53   29   30 1    
    54   29   31 1    
    55   30   53 1    
    56   30   54 1    
    57   30   55 1    
    58   31   56 1    
    59   31   57 1    
    60   31   58 1    
    61   32   33 1    
    62   32   59 1    
    63   32   60 1    
    64   33   61 1    
    65   33   62 1    
@<TRIPOS>SUBSTRUCTURE
     1 UNK         1 GROUP             0       ****    0 ROOT    
