@<TRIPOS>MOLECULE
IAYGCINLNONXHY-LBPRGKRZSA-N_-9.318
44   46    1
SMALL
USER_CHARGES


@<TRIPOS>ATOM
      1 N1          1.8250    1.5100  -11.5160 N.am      1 UNK         0.0000 
      2 C2          0.4620    1.1830  -11.1560 C.2       1 UNK         0.0000 
      3 O3          0.1810    0.0280  -10.7930 O.2       1 UNK         0.0000 
      4 N4         -0.4780    2.2280  -11.2460 N.am      1 UNK         0.0000 
      5 C5         -1.8850    2.0750  -10.9240 C.2       1 UNK         0.0000 
      6 C6         -2.7410    1.3930  -11.7040 C.2       1 UNK         0.0000 
      7 C7         -4.0440    1.3000  -11.3280 C.2       1 UNK         0.0000 
      8 C8         -5.1940    0.6480  -11.9370 C.ar      1 UNK         0.0000 
      9 C9         -5.0580   -0.4740  -12.7260 C.ar      1 UNK         0.0000 
     10 C10        -6.1240   -1.1030  -13.3090 C.ar      1 UNK         0.0000 
     11 C11        -7.3720   -0.5710  -13.0810 C.ar      1 UNK         0.0000 
     12 C12        -7.5330    0.5430  -12.3000 C.ar      1 UNK         0.0000 
     13 F13        -8.7570    1.0900  -12.0590 F         1 UNK         0.0000 
     14 C14        -6.4410    1.1740  -11.7130 C.ar      1 UNK         0.0000 
     15 S15        -4.0670    2.2240   -9.7950 S.3       1 UNK         0.0000 
     16 C16        -2.3640    2.6450   -9.7920 C.2       1 UNK         0.0000 
     17 C17        -1.7390    3.4410   -8.7300 C.2       1 UNK         0.0000 
     18 O18        -1.3420    2.9330   -7.7000 O.2       1 UNK         0.0000 
     19 N19        -1.5860    4.8440   -8.8940 N.am      1 UNK         0.0000 
     20 C20        -0.9800    5.6890   -7.8880 C.3       1 UNK         0.0000 
     21 C21        -0.5410    4.9020   -6.6860 C.3       1 UNK         0.0000 
     22 C22        -0.2420    5.9040   -5.5900 C.3       1 UNK         0.0000 
     23 C23         0.4300    7.1330   -6.1230 C.3       1 UNK         0.0000 
     24 N24         1.0730    6.9400   -7.3910 N.3       1 UNK         0.0000 
     25 C25         0.2230    6.4300   -8.4170 C.3       1 UNK         0.0000 
     26 H26         1.9960    2.1590  -12.2980 H         1 UNK         0.0000 
     27 H27         2.6190    1.1030  -11.0020 H         1 UNK         0.0000 
     28 H28        -0.1160    3.1760  -11.5700 H         1 UNK         0.0000 
     29 H29        -2.3925    0.9173  -12.6326 H         1 UNK         0.0000 
     30 H30        -4.0499   -0.8808  -12.8940 H         1 UNK         0.0000 
     31 H31        -5.9887   -1.9976  -13.9345 H         1 UNK         0.0000 
     32 H32        -8.2545   -1.0475  -13.5329 H         1 UNK         0.0000 
     33 H33        -6.5736    2.0689  -11.0873 H         1 UNK         0.0000 
     34 H34        -1.9230    5.2920   -9.7720 H         1 UNK         0.0000 
     35 H35        -1.7618    6.4078   -7.6015 H         1 UNK         0.0000 
     36 H36        -1.3429    4.2200   -6.3667 H         1 UNK         0.0000 
     37 H37         0.3459    4.2933   -6.9160 H         1 UNK         0.0000 
     38 H38        -1.1867    6.1961   -5.1081 H         1 UNK         0.0000 
     39 H39         0.4403    5.4279   -4.8704 H         1 UNK         0.0000 
     40 H40        -0.3288    7.9214   -6.2358 H         1 UNK         0.0000 
     41 H41         1.2169    7.4042   -5.4038 H         1 UNK         0.0000 
     42 H42         1.9970    6.4660   -7.3240 H         1 UNK         0.0000 
     43 H43        -0.1289    7.2735   -9.0290 H         1 UNK         0.0000 
     44 H44         0.8158    5.7103   -9.0006 H         1 UNK         0.0000 
@<TRIPOS>BOND
     1    1    2 am   BACKBONE|DICT|INTERRES
     2    1   26 1    
     3    1   27 1    
     4    2    3 2    
     5    2    4 am   BACKBONE|DICT|INTERRES
     6    4    5 1    
     7    4   28 1    
     8    5    6 1    
     9    5   16 2    
    10    6    7 2    
    11    6   29 1    
    12    7    8 1    
    13    7   15 1    
    14    8    9 ar   
    15    8   14 ar   
    16    9   10 ar   
    17    9   30 1    
    18   10   11 ar   
    19   10   31 1    
    20   11   12 ar   
    21   11   32 1    
    22   12   13 1    
    23   12   14 ar   
    24   14   33 1    
    25   15   16 1    
    26   16   17 1    
    27   17   18 2    
    28   17   19 am   BACKBONE|DICT|INTERRES
    29   19   20 1    
    30   19   34 1    
    31   20   21 1    
    32   20   25 1    
    33   20   35 1    
    34   21   22 1    
    35   21   36 1    
    36   21   37 1    
    37   22   23 1    
    38   22   38 1    
    39   22   39 1    
    40   23   24 1    
    41   23   40 1    
    42   23   41 1    
    43   24   25 1    
    44   24   42 1    
    45   25   43 1    
    46   25   44 1    
@<TRIPOS>SUBSTRUCTURE
     1 UNK         1 GROUP             0       ****    0 ROOT    
