@<TRIPOS>MOLECULE
LCVIRAZGMYMNNT-UHFFFAOYSA-N_-9.048
51   54    1
SMALL
USER_CHARGES


@<TRIPOS>ATOM
      1 O1         -8.6530    0.0190  -12.9930 O.co2     1 UNK         0.0000 
      2 C2         -8.0750    0.8140  -12.2190 C.2       1 UNK         0.0000 
      3 O3         -8.8230    1.8510  -11.6840 O.co2     1 UNK         0.0000 
      4 C4         -6.6540    0.7180  -11.8390 C.3       1 UNK         0.0000 
      5 C5         -6.5510    0.3160  -10.3980 C.3       1 UNK         0.0000 
      6 C6         -6.0130    1.4630   -9.6100 C.ar      1 UNK         0.0000 
      7 C7         -6.9080    2.4290   -9.1910 C.ar      1 UNK         0.0000 
      8 C8         -6.4600    3.5020   -8.4560 C.ar      1 UNK         0.0000 
      9 C9         -5.0820    3.5410   -8.1730 C.ar      1 UNK         0.0000 
     10 C10        -4.1940    2.5970   -8.5790 C.ar      1 UNK         0.0000 
     11 N11        -2.8230    2.5740   -8.3380 N.pl3     1 UNK         0.0000 
     12 C12        -1.9750    3.6530   -8.0870 C.2       1 UNK         0.0000 
     13 N13        -1.3230    4.0320   -7.1180 N.2       1 UNK         0.0000 
     14 C14        -0.5700    5.0760   -7.0480 C.2       1 UNK         0.0000 
     15 C15        -0.4660    5.8630   -8.1480 C.2       1 UNK         0.0000 
     16 S16        -1.5370    4.9920   -9.3060 S.3       1 UNK         0.0000 
     17 N17        -4.7130    1.5490   -9.3130 N.ar      1 UNK         0.0000 
     18 C18        -5.9260    2.0220  -12.0850 C.3       1 UNK         0.0000 
     19 C19        -4.4520    1.7500  -12.1220 C.3       1 UNK         0.0000 
     20 C20        -4.1020    1.0800  -13.4270 C.3       1 UNK         0.0000 
     21 O21        -2.9950    0.2510  -13.3420 O.3       1 UNK         0.0000 
     22 C22        -1.8600    0.3760  -12.5910 C.ar      1 UNK         0.0000 
     23 C23        -1.8200    0.1440  -11.2360 C.ar      1 UNK         0.0000 
     24 C24        -0.6150    0.3010  -10.5820 C.ar      1 UNK         0.0000 
     25 C25         0.5090    0.6810  -11.2830 C.ar      1 UNK         0.0000 
     26 C26         0.4740    0.9170  -12.6480 C.ar      1 UNK         0.0000 
     27 Cl27        1.9240    1.3990  -13.5050 Cl        1 UNK         0.0000 
     28 C28        -0.7180    0.7640  -13.3120 C.ar      1 UNK         0.0000 
     29 F29        -0.7690    0.9900  -14.6530 F         1 UNK         0.0000 
     30 C30        -5.2740    0.2280  -13.8570 C.3       1 UNK         0.0000 
     31 C31        -6.0220   -0.3820  -12.6790 C.3       1 UNK         0.0000 
     32 H32        -7.5471    0.0435  -10.0192 H         1 UNK         0.0000 
     33 H33        -5.8784   -0.5490  -10.3011 H         1 UNK         0.0000 
     34 H34        -7.9748    2.3402   -9.4443 H         1 UNK         0.0000 
     35 H35        -7.1441    4.2896   -8.1072 H         1 UNK         0.0000 
     36 H36        -4.7001    4.3894   -7.5861 H         1 UNK         0.0000 
     37 H37        -2.3610    1.6020   -8.3450 H         1 UNK         0.0000 
     38 H38        -0.0275    5.3215   -6.1231 H         1 UNK         0.0000 
     39 H39         0.1158    6.7851   -8.2938 H         1 UNK         0.0000 
     40 H40        -6.2477    2.4500  -13.0459 H         1 UNK         0.0000 
     41 H41        -6.1552    2.7367  -11.2809 H         1 UNK         0.0000 
     42 H42        -3.9010    2.6982  -12.0363 H         1 UNK         0.0000 
     43 H43        -4.1773    1.0920  -11.2844 H         1 UNK         0.0000 
     44 H44        -3.8692    1.8812  -14.1438 H         1 UNK         0.0000 
     45 H45        -2.7245   -0.1587  -10.6881 H         1 UNK         0.0000 
     46 H46        -0.5515    0.1224   -9.4985 H         1 UNK         0.0000 
     47 H47         1.4604    0.8003  -10.7440 H         1 UNK         0.0000 
     48 H48        -5.9726    0.8547  -14.4308 H         1 UNK         0.0000 
     49 H49        -4.8776   -0.6000  -14.4630 H         1 UNK         0.0000 
     50 H50        -6.8096   -1.0517  -13.0548 H         1 UNK         0.0000 
     51 H51        -5.3149   -0.9505  -12.0571 H         1 UNK         0.0000 
@<TRIPOS>BOND
     1    1    2 2    
     2    2    3 1    
     3    2    4 1    
     4    4    5 1    
     5    4   18 1    
     6    4   31 1    
     7    5    6 1    
     8    5   32 1    
     9    5   33 1    
    10    6    7 ar   
    11    6   17 ar   
    12    7    8 ar   
    13    7   34 1    
    14    8    9 ar   
    15    8   35 1    
    16    9   10 ar   
    17    9   36 1    
    18   10   11 1    
    19   10   17 ar   
    20   11   12 1    
    21   11   37 1    
    22   12   13 2    
    23   12   16 1    
    24   13   14 1    
    25   14   15 2    
    26   14   38 1    
    27   15   16 1    
    28   15   39 1    
    29   18   19 1    
    30   18   40 1    
    31   18   41 1    
    32   19   20 1    
    33   19   42 1    
    34   19   43 1    
    35   20   21 1    
    36   20   30 1    
    37   20   44 1    
    38   21   22 1    
    39   22   23 ar   
    40   22   28 ar   
    41   23   24 ar   
    42   23   45 1    
    43   24   25 ar   
    44   24   46 1    
    45   25   26 ar   
    46   25   47 1    
    47   26   27 1    
    48   26   28 ar   
    49   28   29 1    
    50   30   31 1    
    51   30   48 1    
    52   30   49 1    
    53   31   50 1    
    54   31   51 1    
@<TRIPOS>SUBSTRUCTURE
     1 UNK         1 GROUP             0       ****    0 ROOT    
