@<TRIPOS>MOLECULE
MFAQYJIYDMLAIM-UHFFFAOYSA-N_-8.681
38   41    1
SMALL
USER_CHARGES


@<TRIPOS>ATOM
      1 C1         -5.9700    1.4420  -12.8340 C.3       1 UNK         0.0000 
      2 C2         -5.5910    0.7470  -11.5440 C.3       1 UNK         0.0000 
      3 C3         -6.5680    1.2040  -10.4740 C.3       1 UNK         0.0000 
      4 N4         -4.2770    1.2710  -11.1450 N.pl3     1 UNK         0.0000 
      5 N5         -4.0270    2.1040  -10.1910 N.2       1 UNK         0.0000 
      6 C6         -2.6560    2.3370  -10.1520 C.ar      1 UNK         0.0000 
      7 C7         -2.0530    3.2290   -9.1890 C.ar      1 UNK         0.0000 
      8 C8         -1.7900    3.2150   -7.8740 C.ar      1 UNK         0.0000 
      9 C9         -1.1610    4.4080   -7.4450 C.ar      1 UNK         0.0000 
     10 C10        -0.7070    4.8550   -6.2240 C.ar      1 UNK         0.0000 
     11 C11        -0.1240    6.1080   -6.1510 C.ar      1 UNK         0.0000 
     12 O12         0.3450    6.5830   -4.9160 O.co2     1 UNK         0.0000 
     13 C13        -0.0030    6.8850   -7.2820 C.ar      1 UNK         0.0000 
     14 C14        -0.4690    6.4040   -8.4880 C.ar      1 UNK         0.0000 
     15 C15        -1.0600    5.1450   -8.5860 C.ar      1 UNK         0.0000 
     16 N16        -1.5800    4.4610   -9.6050 N.pl3     1 UNK         0.0000 
     17 C17        -2.1100    1.5870  -11.1450 C.ar      1 UNK         0.0000 
     18 C18        -0.8660    1.3570  -11.6370 C.ar      1 UNK         0.0000 
     19 N19         0.2630    1.9790  -11.0900 N.pl3     1 UNK         0.0000 
     20 N20        -0.7070    0.5020  -12.6900 N.ar      1 UNK         0.0000 
     21 C21        -1.7000   -0.1460  -13.2930 C.ar      1 UNK         0.0000 
     22 N22        -2.9330    0.0670  -12.8230 N.ar      1 UNK         0.0000 
     23 C23        -3.1560    0.9040  -11.7820 C.ar      1 UNK         0.0000 
     24 H24        -6.4850    2.3864  -12.6041 H         1 UNK         0.0000 
     25 H25        -5.0617    1.6524  -13.4177 H         1 UNK         0.0000 
     26 H26        -6.6387    0.7924  -13.4177 H         1 UNK         0.0000 
     27 H27        -5.5915   -0.3463  -11.6649 H         1 UNK         0.0000 
     28 H28        -6.1422    1.0048   -9.4795 H         1 UNK         0.0000 
     29 H29        -6.7540    2.2826  -10.5839 H         1 UNK         0.0000 
     30 H30        -7.5151    0.6555  -10.5839 H         1 UNK         0.0000 
     31 H31        -2.0344    2.3750   -7.2072 H         1 UNK         0.0000 
     32 H32        -0.8058    4.2288   -5.3251 H         1 UNK         0.0000 
     33 H33         0.4613    7.8805   -7.2240 H         1 UNK         0.0000 
     34 H34        -0.3724    7.0260   -9.3901 H         1 UNK         0.0000 
     35 H35        -1.6110    4.8260  -10.5660 H         1 UNK         0.0000 
     36 H36         0.1480    2.6890  -10.3380 H         1 UNK         0.0000 
     37 H37         1.1900    1.7450  -11.4490 H         1 UNK         0.0000 
     38 H38        -1.5151   -0.8250  -14.1384 H         1 UNK         0.0000 
@<TRIPOS>BOND
     1    1    2 1    
     2    1   24 1    
     3    1   25 1    
     4    1   26 1    
     5    2    3 1    
     6    2    4 1    
     7    2   27 1    
     8    3   28 1    
     9    3   29 1    
    10    3   30 1    
    11    4    5 ar   
    12    4   23 ar   
    13    5    6 ar   
    14    6    7 1    
    15    6   17 ar   
    16    7    8 ar   
    17    7   16 ar   
    18    8    9 ar   
    19    8   31 1    
    20    9   10 ar   
    21    9   15 ar   
    22   10   11 ar   
    23   10   32 1    
    24   11   12 1    
    25   11   13 ar   
    26   13   14 ar   
    27   13   33 1    
    28   14   15 ar   
    29   14   34 1    
    30   15   16 ar   
    31   16   35 1    
    32   17   18 ar   
    33   17   23 ar   
    34   18   19 1    
    35   18   20 ar   
    36   19   36 1    
    37   19   37 1    
    38   20   21 ar   
    39   21   22 ar   
    40   21   38 1    
    41   22   23 ar   
@<TRIPOS>SUBSTRUCTURE
     1 UNK         1 GROUP             0       ****    0 ROOT    
