@<TRIPOS>MOLECULE
OUKYUETWWIPKQR-UHFFFAOYSA-N_-8.283
71   76    1
SMALL
USER_CHARGES


@<TRIPOS>ATOM
      1 C1          0.7500    7.8120  -11.8920 C.3       1 UNK         0.0000 
      2 N2          0.3910    6.9170  -10.8040 N.4       1 UNK         0.0000 
      3 C3          1.2590    7.2270   -9.6970 C.3       1 UNK         0.0000 
      4 C4          0.7940    6.4980   -8.4270 C.3       1 UNK         0.0000 
      5 N5         -0.5070    7.0000   -8.1320 N.3       1 UNK         0.0000 
      6 C6         -1.0260    6.6540   -6.8340 C.3       1 UNK         0.0000 
      7 C7         -0.5240    5.3660   -6.2870 C.3       1 UNK         0.0000 
      8 O8         -0.4520    4.3960   -7.2670 O.3       1 UNK         0.0000 
      9 C9         -1.3610    3.7760   -8.0470 C.ar      1 UNK         0.0000 
     10 C10        -0.9400    3.3720   -9.3190 C.ar      1 UNK         0.0000 
     11 C11        -1.8190    2.7330  -10.1570 C.ar      1 UNK         0.0000 
     12 O12        -1.3800    2.3560  -11.3830 O.3       1 UNK         0.0000 
     13 C13        -0.1120    2.0620  -11.8170 C.3       1 UNK         0.0000 
     14 C14         0.3680    0.7710  -11.1390 C.3       1 UNK         0.0000 
     15 C15         1.6370    0.2750  -11.7660 C.3       1 UNK         0.0000 
     16 O16         1.5650    0.1200  -13.1340 O.3       1 UNK         0.0000 
     17 C17         1.3180    1.3950  -13.6860 C.3       1 UNK         0.0000 
     18 C18        -0.1010    1.7610  -13.3110 C.3       1 UNK         0.0000 
     19 C19        -3.1460    2.4510   -9.8110 C.ar      1 UNK         0.0000 
     20 C20        -4.0320    1.8240  -10.6340 C.ar      1 UNK         0.0000 
     21 N21        -3.6960    1.3710  -11.9120 N.pl3     1 UNK         0.0000 
     22 C22        -4.5210    0.3750  -12.5620 C.ar      1 UNK         0.0000 
     23 C23        -3.8960   -0.7210  -13.1050 C.ar      1 UNK         0.0000 
     24 Cl24       -2.1600   -0.8480  -12.9700 Cl        1 UNK         0.0000 
     25 C25        -4.6660   -1.6820  -13.7360 C.ar      1 UNK         0.0000 
     26 C26        -6.0480   -1.5040  -13.7990 C.ar      1 UNK         0.0000 
     27 C27        -6.6500   -0.3920  -13.2430 C.ar      1 UNK         0.0000 
     28 C28        -5.8760    0.5850  -12.6020 C.ar      1 UNK         0.0000 
     29 O29        -6.7640    1.5690  -12.1540 O.3       1 UNK         0.0000 
     30 C30        -8.0120    0.8770  -12.0030 C.3       1 UNK         0.0000 
     31 O31        -7.9690    0.0340  -13.1580 O.3       1 UNK         0.0000 
     32 N32        -5.2940    1.6050  -10.2150 N.ar      1 UNK         0.0000 
     33 C33        -5.6530    2.0080   -8.9930 C.ar      1 UNK         0.0000 
     34 N34        -4.8010    2.6260   -8.1610 N.ar      1 UNK         0.0000 
     35 C35        -3.5250    2.8670   -8.5430 C.ar      1 UNK         0.0000 
     36 C36        -2.6600    3.5130   -7.6760 C.ar      1 UNK         0.0000 
     37 C37        -1.4100    6.6070   -9.1660 C.3       1 UNK         0.0000 
     38 C38        -1.0130    7.1500  -10.5230 C.3       1 UNK         0.0000 
     39 H39         1.1295    8.7581  -11.4785 H         1 UNK         0.0000 
     40 H40         1.5297    7.3432  -12.5103 H         1 UNK         0.0000 
     41 H41        -0.1375    8.0119  -12.5103 H         1 UNK         0.0000 
     42 H42         0.5870    5.9440  -11.1300 H         1 UNK         0.0000 
     43 H43         2.2838    6.9106   -9.9411 H         1 UNK         0.0000 
     44 H44         1.2297    8.3115   -9.5152 H         1 UNK         0.0000 
     45 H45         0.7527    5.4131   -8.6040 H         1 UNK         0.0000 
     46 H46         1.4879    6.6690   -7.5908 H         1 UNK         0.0000 
     47 H47        -0.7523    7.4546   -6.1311 H         1 UNK         0.0000 
     48 H48        -2.1130    6.5372   -6.9553 H         1 UNK         0.0000 
     49 H49         0.4795    5.5234   -5.8649 H         1 UNK         0.0000 
     50 H50        -1.2245    5.0230   -5.5114 H         1 UNK         0.0000 
     51 H51         0.0922    3.5660   -9.6461 H         1 UNK         0.0000 
     52 H52         0.5235    2.9288  -11.5832 H         1 UNK         0.0000 
     53 H53         0.5477    0.9702  -10.0722 H         1 UNK         0.0000 
     54 H54        -0.4080    0.0011  -11.2616 H         1 UNK         0.0000 
     55 H55         2.4378    0.9949  -11.5415 H         1 UNK         0.0000 
     56 H56         1.8315   -0.7217  -11.3433 H         1 UNK         0.0000 
     57 H57         2.0221    2.1311  -13.2709 H         1 UNK         0.0000 
     58 H58         1.4501    1.3868  -14.7780 H         1 UNK         0.0000 
     59 H59        -0.4227    2.6482  -13.8761 H         1 UNK         0.0000 
     60 H60        -0.7909    0.9374  -13.5473 H         1 UNK         0.0000 
     61 H61        -2.8920    1.6860  -12.4430 H         1 UNK         0.0000 
     62 H62        -4.1960   -2.5716  -14.1806 H         1 UNK         0.0000 
     63 H63        -6.6687   -2.2616  -14.2997 H         1 UNK         0.0000 
     64 H64        -8.0447    0.2924  -11.0718 H         1 UNK         0.0000 
     65 H65        -8.8972    1.5266  -11.9358 H         1 UNK         0.0000 
     66 H66        -6.6845    1.8266   -8.6567 H         1 UNK         0.0000 
     67 H67        -3.0146    3.8191   -6.6807 H         1 UNK         0.0000 
     68 H68        -1.4295    5.5084   -9.2180 H         1 UNK         0.0000 
     69 H69        -2.3995    7.0189   -8.9187 H         1 UNK         0.0000 
     70 H70        -1.6184    6.6545  -11.2963 H         1 UNK         0.0000 
     71 H71        -1.1870    8.2361  -10.5222 H         1 UNK         0.0000 
@<TRIPOS>BOND
     1    1    2 1    
     2    1   39 1    
     3    1   40 1    
     4    1   41 1    
     5    2    3 1    
     6    2   38 1    
     7    2   42 1    
     8    3    4 1    
     9    3   43 1    
    10    3   44 1    
    11    4    5 1    
    12    4   45 1    
    13    4   46 1    
    14    5    6 1    
    15    5   37 1    
    16    6    7 1    
    17    6   47 1    
    18    6   48 1    
    19    7    8 1    
    20    7   49 1    
    21    7   50 1    
    22    8    9 1    
    23    9   10 ar   
    24    9   36 ar   
    25   10   11 ar   
    26   10   51 1    
    27   11   12 1    
    28   11   19 ar   
    29   12   13 1    
    30   13   14 1    
    31   13   18 1    
    32   13   52 1    
    33   14   15 1    
    34   14   53 1    
    35   14   54 1    
    36   15   16 1    
    37   15   55 1    
    38   15   56 1    
    39   16   17 1    
    40   17   18 1    
    41   17   57 1    
    42   17   58 1    
    43   18   59 1    
    44   18   60 1    
    45   19   20 ar   
    46   19   35 ar   
    47   20   21 1    
    48   20   32 ar   
    49   21   22 1    
    50   21   61 1    
    51   22   23 ar   
    52   22   28 ar   
    53   23   24 1    
    54   23   25 ar   
    55   25   26 ar   
    56   25   62 1    
    57   26   27 ar   
    58   26   63 1    
    59   27   28 ar   
    60   27   31 1    
    61   28   29 1    
    62   29   30 1    
    63   30   31 1    
    64   30   64 1    
    65   30   65 1    
    66   32   33 ar   
    67   33   34 ar   
    68   33   66 1    
    69   34   35 ar   
    70   35   36 ar   
    71   36   67 1    
    72   37   38 1    
    73   37   68 1    
    74   37   69 1    
    75   38   70 1    
    76   38   71 1    
@<TRIPOS>SUBSTRUCTURE
     1 UNK         1 GROUP             0       ****    0 ROOT    
