@<TRIPOS>MOLECULE
WKDACQVEJIVHMZ-UHFFFAOYSA-N_-7.476
69   73    1
SMALL
USER_CHARGES


@<TRIPOS>ATOM
      1 C1         -0.8680    7.7930   -4.4660 C.3       1 UNK         0.0000 
      2 C2         -0.6210    6.4020   -5.0080 C.3       1 UNK         0.0000 
      3 S3          0.6890    6.4260   -6.2210 S.o2      1 UNK         0.0000 
      4 O4          1.2800    7.8050   -6.2820 O.2       1 UNK         0.0000 
      5 O5          1.6860    5.3870   -5.7950 O.2       1 UNK         0.0000 
      6 C6          0.0330    5.9240   -7.7710 C.ar      1 UNK         0.0000 
      7 C7          0.6320    6.3790   -8.9230 C.ar      1 UNK         0.0000 
      8 C8          0.0960    5.9740  -10.1260 C.ar      1 UNK         0.0000 
      9 C9         -0.9970    5.1460  -10.1540 C.ar      1 UNK         0.0000 
     10 C10        -1.6200    4.6730   -8.9900 C.ar      1 UNK         0.0000 
     11 C11        -2.7810    3.8020   -9.0830 C.ar      1 UNK         0.0000 
     12 C12        -3.9590    4.1370   -8.4360 C.ar      1 UNK         0.0000 
     13 C13        -5.1390    3.3780   -8.5480 C.ar      1 UNK         0.0000 
     14 C14        -6.3120    3.8590   -7.8760 C.2       1 UNK         0.0000 
     15 O15        -6.9460    2.9760   -7.1570 O.2       1 UNK         0.0000 
     16 N16        -6.8760    5.1520   -7.8780 N.am      1 UNK         0.0000 
     17 C17        -8.0950    5.4320   -7.1290 C.3       1 UNK         0.0000 
     18 C18        -7.8860    5.3250   -5.6320 C.3       1 UNK         0.0000 
     19 C19        -9.2600    5.4390   -5.0000 C.3       1 UNK         0.0000 
     20 N20        -9.9300    6.6610   -5.3320 N.4       1 UNK         0.0000 
     21 C21        -9.3840    7.8120   -4.6460 C.3       1 UNK         0.0000 
     22 C22        -9.9740    6.9360   -6.7430 C.3       1 UNK         0.0000 
     23 C23        -8.6440    6.7910   -7.4230 C.3       1 UNK         0.0000 
     24 C24        -5.0810    2.2780   -9.3290 C.ar      1 UNK         0.0000 
     25 C25        -6.2820    1.3890   -9.4530 C.3       1 UNK         0.0000 
     26 C26        -3.9070    1.8910  -10.0090 C.ar      1 UNK         0.0000 
     27 N27        -3.6670    0.8520  -10.7960 N.pl3     1 UNK         0.0000 
     28 C28        -2.3840    0.9240  -11.1800 C.ar      1 UNK         0.0000 
     29 N29        -1.6470    0.1130  -11.9660 N.ar      1 UNK         0.0000 
     30 C30        -0.3440    0.3440  -12.2310 C.ar      1 UNK         0.0000 
     31 C31         0.2440    1.4540  -11.6740 C.ar      1 UNK         0.0000 
     32 C32         1.6680    1.7650  -11.9230 C.3       1 UNK         0.0000 
     33 C33        -0.4630    2.3390  -10.8490 C.ar      1 UNK         0.0000 
     34 C34        -1.7900    2.0480  -10.6170 C.ar      1 UNK         0.0000 
     35 C35        -2.7840    2.6700   -9.8640 C.ar      1 UNK         0.0000 
     36 C36        -1.0680    5.0890   -7.7980 C.ar      1 UNK         0.0000 
     37 H37        -0.8629    7.7643   -3.3664 H         1 UNK         0.0000 
     38 H38        -0.0760    8.4700   -4.8188 H         1 UNK         0.0000 
     39 H39        -1.8446    8.1559   -4.8188 H         1 UNK         0.0000 
     40 H40        -0.3354    5.7365   -4.1801 H         1 UNK         0.0000 
     41 H41        -1.5421    6.0384   -5.4868 H         1 UNK         0.0000 
     42 H42         1.5082    7.0429   -8.8850 H         1 UNK         0.0000 
     43 H43         0.5471    6.3166  -11.0689 H         1 UNK         0.0000 
     44 H44        -1.4018    4.8402  -11.1300 H         1 UNK         0.0000 
     45 H45        -3.9730    5.0381   -7.8053 H         1 UNK         0.0000 
     46 H46        -6.3920    5.9030   -8.4020 H         1 UNK         0.0000 
     47 H47        -8.8135    4.6666   -7.4576 H         1 UNK         0.0000 
     48 H48        -7.4301    4.3563   -5.3796 H         1 UNK         0.0000 
     49 H49        -7.2113    6.1128   -5.2657 H         1 UNK         0.0000 
     50 H50        -9.8761    4.5962   -5.3466 H         1 UNK         0.0000 
     51 H51        -9.1220    5.4258   -3.9088 H         1 UNK         0.0000 
     52 H52       -10.9300    6.5540   -5.0070 H         1 UNK         0.0000 
     53 H53        -9.4564    7.6594   -3.5590 H         1 UNK         0.0000 
     54 H54        -8.3288    7.9409   -4.9287 H         1 UNK         0.0000 
     55 H55        -9.9517    8.7107   -4.9287 H         1 UNK         0.0000 
     56 H56       -10.6827    6.2376   -7.2119 H         1 UNK         0.0000 
     57 H57       -10.2838    7.9851   -6.8586 H         1 UNK         0.0000 
     58 H58        -8.7696    6.9114   -8.5092 H         1 UNK         0.0000 
     59 H59        -7.9507    7.5608   -7.0533 H         1 UNK         0.0000 
     60 H60        -6.6446    1.1206   -8.4498 H         1 UNK         0.0000 
     61 H61        -7.0756    1.9190  -10.0001 H         1 UNK         0.0000 
     62 H62        -6.0069    0.4752  -10.0001 H         1 UNK         0.0000 
     63 H63        -4.3780    0.1220  -11.0520 H         1 UNK         0.0000 
     64 H64         0.2313   -0.3374  -12.8750 H         1 UNK         0.0000 
     65 H65         2.1917    1.8794  -10.9625 H         1 UNK         0.0000 
     66 H66         2.1274    0.9460  -12.4959 H         1 UNK         0.0000 
     67 H67         1.7442    2.7009  -12.4959 H         1 UNK         0.0000 
     68 H68         0.0184    3.2241  -10.4075 H         1 UNK         0.0000 
     69 H69        -1.5119    4.7502   -6.8503 H         1 UNK         0.0000 
@<TRIPOS>BOND
     1    1    2 1    
     2    1   37 1    
     3    1   38 1    
     4    1   39 1    
     5    2    3 1    
     6    2   40 1    
     7    2   41 1    
     8    3    4 2    
     9    3    5 2    
    10    3    6 1    
    11    6    7 ar   
    12    6   36 ar   
    13    7    8 ar   
    14    7   42 1    
    15    8    9 ar   
    16    8   43 1    
    17    9   10 ar   
    18    9   44 1    
    19   10   11 1    
    20   10   36 ar   
    21   11   12 ar   
    22   11   35 ar   
    23   12   13 ar   
    24   12   45 1    
    25   13   14 1    
    26   13   24 ar   
    27   14   15 2    
    28   14   16 am   BACKBONE|DICT|INTERRES
    29   16   17 1    
    30   16   46 1    
    31   17   18 1    
    32   17   23 1    
    33   17   47 1    
    34   18   19 1    
    35   18   48 1    
    36   18   49 1    
    37   19   20 1    
    38   19   50 1    
    39   19   51 1    
    40   20   21 1    
    41   20   22 1    
    42   20   52 1    
    43   21   53 1    
    44   21   54 1    
    45   21   55 1    
    46   22   23 1    
    47   22   56 1    
    48   22   57 1    
    49   23   58 1    
    50   23   59 1    
    51   24   25 1    
    52   24   26 ar   
    53   25   60 1    
    54   25   61 1    
    55   25   62 1    
    56   26   27 ar   
    57   26   35 ar   
    58   27   28 ar   
    59   27   63 1    
    60   28   29 ar   
    61   28   34 ar   
    62   29   30 ar   
    63   30   31 ar   
    64   30   64 1    
    65   31   32 1    
    66   31   33 ar   
    67   32   65 1    
    68   32   66 1    
    69   32   67 1    
    70   33   34 ar   
    71   33   68 1    
    72   34   35 ar   
    73   36   69 1    
@<TRIPOS>SUBSTRUCTURE
     1 UNK         1 GROUP             0       ****    0 ROOT    
