@<TRIPOS>MOLECULE
ALKJNCZNEOTEMP-UHFFFAOYSA-N_-9.081
64   68    1
SMALL
USER_CHARGES


@<TRIPOS>ATOM
      1 C1         -9.7070    6.5030   -5.6000 C.3       1 UNK         0.0000 
      2 C2         -8.3400    6.6540   -6.2010 C.3       1 UNK         0.0000 
      3 C3         -7.4270    7.2340   -5.1200 C.3       1 UNK         0.0000 
      4 C4         -7.7480    5.3350   -6.5760 C.2       1 UNK         0.0000 
      5 C5         -7.3040    4.9920   -7.8360 C.2       1 UNK         0.0000 
      6 C6         -6.8380    3.7050   -7.7440 C.2       1 UNK         0.0000 
      7 C7         -6.2590    2.9180   -8.8610 C.3       1 UNK         0.0000 
      8 N8         -5.0870    2.2280   -8.3970 N.pl3     1 UNK         0.0000 
      9 C9         -3.7850    2.5380   -8.9340 C.ar      1 UNK         0.0000 
     10 N10        -3.2810    1.8920   -9.9690 N.ar      1 UNK         0.0000 
     11 C11        -2.0450    2.1800  -10.4780 C.ar      1 UNK         0.0000 
     12 N12        -1.5560    1.4540  -11.5870 N.pl3     1 UNK         0.0000 
     13 C13        -2.2710    0.5360  -12.3540 C.ar      1 UNK         0.0000 
     14 C14        -3.6580    0.5420  -12.5410 C.ar      1 UNK         0.0000 
     15 C15        -4.0160   -0.5060  -13.3610 C.ar      1 UNK         0.0000 
     16 C16        -5.4000   -0.8080  -13.7720 C.3       1 UNK         0.0000 
     17 C17        -6.3130   -1.3300  -12.6510 C.3       1 UNK         0.0000 
     18 C18        -6.5450   -0.0130  -13.2960 C.3       1 UNK         0.0000 
     19 N19        -2.8650   -1.1330  -13.6630 N.pl3     1 UNK         0.0000 
     20 N20        -1.8530   -0.5150  -13.0680 N.2       1 UNK         0.0000 
     21 C21        -1.3160    3.1750   -9.8850 C.ar      1 UNK         0.0000 
     22 C22        -1.8730    3.8370   -8.7980 C.ar      1 UNK         0.0000 
     23 N23        -1.1700    4.8640   -8.1220 N.pl3     1 UNK         0.0000 
     24 C24        -0.9620    6.1060   -8.8130 C.3       1 UNK         0.0000 
     25 C25         0.1750    6.9170   -8.2800 C.3       1 UNK         0.0000 
     26 N26         0.6210    6.5660   -6.9640 N.4       1 UNK         0.0000 
     27 C27         1.1220    7.7500   -6.3070 C.3       1 UNK         0.0000 
     28 C28        -0.3780    5.9330   -6.1430 C.3       1 UNK         0.0000 
     29 C29        -0.7090    4.5990   -6.7780 C.3       1 UNK         0.0000 
     30 N30        -3.0930    3.5050   -8.3470 N.ar      1 UNK         0.0000 
     31 O31        -6.9980    3.3250   -6.5200 O.3       1 UNK         0.0000 
     32 N32        -7.5340    4.2640   -5.7980 N.2       1 UNK         0.0000 
     33 H33        -9.6282    6.5117   -4.5029 H         1 UNK         0.0000 
     34 H34       -10.3460    7.3360   -5.9283 H         1 UNK         0.0000 
     35 H35       -10.1487    5.5506   -5.9283 H         1 UNK         0.0000 
     36 H36        -8.4264    7.2864   -7.0969 H         1 UNK         0.0000 
     37 H37        -7.8269    6.9800   -4.1273 H         1 UNK         0.0000 
     38 H38        -6.4171    6.8115   -5.2276 H         1 UNK         0.0000 
     39 H39        -7.3803    8.3277   -5.2276 H         1 UNK         0.0000 
     40 H40        -7.3203    5.6246   -8.7357 H         1 UNK         0.0000 
     41 H41        -6.9991    2.1866   -9.2178 H         1 UNK         0.0000 
     42 H42        -5.9873    3.5930   -9.6859 H         1 UNK         0.0000 
     43 H43        -5.1430    1.5080   -7.6850 H         1 UNK         0.0000 
     44 H44        -0.5430    1.6390  -11.8460 H         1 UNK         0.0000 
     45 H45        -4.3548    1.2708  -12.1013 H         1 UNK         0.0000 
     46 H46        -5.0731   -1.1136  -14.7769 H         1 UNK         0.0000 
     47 H47        -6.9992   -2.1687  -12.8400 H         1 UNK         0.0000 
     48 H48        -6.1694   -1.6881  -11.6209 H         1 UNK         0.0000 
     49 H49        -7.4191    0.1247  -13.9495 H         1 UNK         0.0000 
     50 H50        -6.6546    1.0132  -12.9154 H         1 UNK         0.0000 
     51 H51        -2.8030   -1.9750  -14.2720 H         1 UNK         0.0000 
     52 H52        -0.3168    3.4431  -10.2587 H         1 UNK         0.0000 
     53 H53        -0.7614    5.8833   -9.8714 H         1 UNK         0.0000 
     54 H54        -1.8735    6.7051   -8.6708 H         1 UNK         0.0000 
     55 H55         1.0254    6.8011   -8.9680 H         1 UNK         0.0000 
     56 H56        -0.1991    7.9488   -8.2063 H         1 UNK         0.0000 
     57 H57         1.4490    5.9040   -7.0550 H         1 UNK         0.0000 
     58 H58         1.0653    7.6161   -5.2167 H         1 UNK         0.0000 
     59 H59         2.1683    7.9180   -6.6019 H         1 UNK         0.0000 
     60 H60         0.5140    8.6180   -6.6019 H         1 UNK         0.0000 
     61 H61         0.0136    5.7785   -5.1267 H         1 UNK         0.0000 
     62 H62        -1.2773    6.5625   -6.0718 H         1 UNK         0.0000 
     63 H63         0.1880    3.9630   -6.8065 H         1 UNK         0.0000 
     64 H64        -1.4820    4.0734   -6.1982 H         1 UNK         0.0000 
@<TRIPOS>BOND
     1    1    2 1    
     2    1   33 1    
     3    1   34 1    
     4    1   35 1    
     5    2    3 1    
     6    2    4 1    
     7    2   36 1    
     8    3   37 1    
     9    3   38 1    
    10    3   39 1    
    11    4    5 1    
    12    4   32 2    
    13    5    6 2    
    14    5   40 1    
    15    6    7 1    
    16    6   31 1    
    17    7    8 1    
    18    7   41 1    
    19    7   42 1    
    20    8    9 1    
    21    8   43 1    
    22    9   10 ar   
    23    9   30 ar   
    24   10   11 ar   
    25   11   12 1    
    26   11   21 ar   
    27   12   13 1    
    28   12   44 1    
    29   13   14 ar   
    30   13   20 ar   
    31   14   15 ar   
    32   14   45 1    
    33   15   16 1    
    34   15   19 ar   
    35   16   17 1    
    36   16   18 1    
    37   16   46 1    
    38   17   18 1    
    39   17   47 1    
    40   17   48 1    
    41   18   49 1    
    42   18   50 1    
    43   19   20 ar   
    44   19   51 1    
    45   21   22 ar   
    46   21   52 1    
    47   22   23 1    
    48   22   30 ar   
    49   23   24 1    
    50   23   29 1    
    51   24   25 1    
    52   24   53 1    
    53   24   54 1    
    54   25   26 1    
    55   25   55 1    
    56   25   56 1    
    57   26   27 1    
    58   26   28 1    
    59   26   57 1    
    60   27   58 1    
    61   27   59 1    
    62   27   60 1    
    63   28   29 1    
    64   28   61 1    
    65   28   62 1    
    66   29   63 1    
    67   29   64 1    
    68   31   32 1    
@<TRIPOS>SUBSTRUCTURE
     1 UNK         1 GROUP             0       ****    0 ROOT    
