@<TRIPOS>MOLECULE
FYSRKRZDBHOFAY-UHFFFAOYSA-N_-7.528
41   43    1
SMALL
USER_CHARGES


@<TRIPOS>ATOM
      1 N1          1.3120    1.9840  -11.5490 N.am      1 UNK         0.0000 
      2 C2          0.4600    0.8460  -11.3830 C.2       1 UNK         0.0000 
      3 O3          0.9750   -0.1660  -10.7970 O.2       1 UNK         0.0000 
      4 C4         -0.8950    0.8300  -11.8390 C.ar      1 UNK         0.0000 
      5 C5         -1.2390    0.0810  -12.9640 C.ar      1 UNK         0.0000 
      6 C6         -2.5420    0.0300  -13.4160 C.ar      1 UNK         0.0000 
      7 C7         -3.5460    0.7340  -12.7510 C.ar      1 UNK         0.0000 
      8 N8         -4.8980    0.6710  -13.2480 N.am      1 UNK         0.0000 
      9 C9         -5.1940    0.3530  -14.5960 C.2       1 UNK         0.0000 
     10 N10        -5.5670    1.3640  -15.5200 N.am      1 UNK         0.0000 
     11 O11        -5.1120   -0.8530  -14.9380 O.2       1 UNK         0.0000 
     12 C12        -5.9910    0.9360  -12.3700 C.ar      1 UNK         0.0000 
     13 C13        -6.2340    2.1880  -11.8480 C.ar      1 UNK         0.0000 
     14 F14        -5.3670    3.1830  -12.2290 F         1 UNK         0.0000 
     15 C15        -7.2790    2.4540  -10.9950 C.ar      1 UNK         0.0000 
     16 C16        -8.1420    1.4490  -10.6200 C.ar      1 UNK         0.0000 
     17 C17        -7.9190    0.1880  -11.1290 C.ar      1 UNK         0.0000 
     18 C18        -6.8670   -0.0770  -11.9880 C.ar      1 UNK         0.0000 
     19 F19        -6.6740   -1.3370  -12.4750 F         1 UNK         0.0000 
     20 N20        -3.1850    1.4390  -11.6840 N.ar      1 UNK         0.0000 
     21 C21        -1.8980    1.5100  -11.2080 C.ar      1 UNK         0.0000 
     22 C22        -1.6890    2.3400  -10.0220 C.ar      1 UNK         0.0000 
     23 C23        -1.5620    3.7090  -10.0880 C.ar      1 UNK         0.0000 
     24 C24        -1.4040    4.5050   -8.9800 C.ar      1 UNK         0.0000 
     25 C25        -1.3710    3.8990   -7.7390 C.ar      1 UNK         0.0000 
     26 F26        -1.2160    4.7000   -6.6510 F         1 UNK         0.0000 
     27 C27        -1.4940    2.5430   -7.6180 C.ar      1 UNK         0.0000 
     28 C28        -1.6530    1.7670   -8.7690 C.ar      1 UNK         0.0000 
     29 F29        -1.7730    0.4240   -8.6380 F         1 UNK         0.0000 
     30 H30         1.9600    2.0280  -12.3660 H         1 UNK         0.0000 
     31 H31         1.2770    2.7680  -10.8420 H         1 UNK         0.0000 
     32 H32        -0.4585   -0.4787  -13.5002 H         1 UNK         0.0000 
     33 H33        -2.7900   -0.5686  -14.3049 H         1 UNK         0.0000 
     34 H34        -6.1910    2.1490  -15.2660 H         1 UNK         0.0000 
     35 H35        -5.1630    1.2650  -16.4940 H         1 UNK         0.0000 
     36 H36        -7.4261    3.4741  -10.6106 H         1 UNK         0.0000 
     37 H37        -8.9814    1.6460   -9.9369 H         1 UNK         0.0000 
     38 H38        -8.5962   -0.6308  -10.8445 H         1 UNK         0.0000 
     39 H39        -1.5884    4.1893  -11.0772 H         1 UNK         0.0000 
     40 H40        -1.3063    5.5962   -9.0781 H         1 UNK         0.0000 
     41 H41        -1.4681    2.0683   -6.6261 H         1 UNK         0.0000 
@<TRIPOS>BOND
     1    1    2 am   BACKBONE|DICT|INTERRES
     2    1   30 1    
     3    1   31 1    
     4    2    3 2    
     5    2    4 1    
     6    4    5 ar   
     7    4   21 ar   
     8    5    6 ar   
     9    5   32 1    
    10    6    7 ar   
    11    6   33 1    
    12    7    8 1    
    13    7   20 ar   
    14    8    9 am   BACKBONE|DICT|INTERRES
    15    8   12 1    
    16    9   10 am   BACKBONE|DICT|INTERRES
    17    9   11 2    
    18   10   34 1    
    19   10   35 1    
    20   12   13 ar   
    21   12   18 ar   
    22   13   14 1    
    23   13   15 ar   
    24   15   16 ar   
    25   15   36 1    
    26   16   17 ar   
    27   16   37 1    
    28   17   18 ar   
    29   17   38 1    
    30   18   19 1    
    31   20   21 ar   
    32   21   22 1    
    33   22   23 ar   
    34   22   28 ar   
    35   23   24 ar   
    36   23   39 1    
    37   24   25 ar   
    38   24   40 1    
    39   25   26 1    
    40   25   27 ar   
    41   27   28 ar   
    42   27   41 1    
    43   28   29 1    
@<TRIPOS>SUBSTRUCTURE
     1 UNK         1 GROUP             0       ****    0 ROOT    
