@<TRIPOS>MOLECULE
JUUFLLKHNYWHKP-UHFFFAOYSA-N_-8.022
39   42    1
SMALL
USER_CHARGES


@<TRIPOS>ATOM
      1 C1          0.5730    7.5430   -7.2360 C.3       1 UNK         0.0000 
      2 C2         -0.1510    6.3350   -7.6980 C.2       1 UNK         0.0000 
      3 N3         -0.5180    6.0540   -8.9590 N.2       1 UNK         0.0000 
      4 C4         -1.1610    4.8550   -8.9710 C.ar      1 UNK         0.0000 
      5 C5         -1.7290    4.1080   -9.9730 C.ar      1 UNK         0.0000 
      6 C6         -2.3220    2.8980   -9.6640 C.ar      1 UNK         0.0000 
      7 C7         -2.9660    2.1010  -10.7160 C.ar      1 UNK         0.0000 
      8 N8         -4.2650    2.1630  -11.1050 N.2       1 UNK         0.0000 
      9 N9         -4.4880    1.3290  -12.0810 N.pl3     1 UNK         0.0000 
     10 C10        -5.7630    1.1190  -12.7550 C.3       1 UNK         0.0000 
     11 C11        -5.5180    1.1440  -14.2690 C.3       1 UNK         0.0000 
     12 C12        -6.3720   -0.2210  -12.4010 C.3       1 UNK         0.0000 
     13 C13        -3.3600    0.6620  -12.4030 C.ar      1 UNK         0.0000 
     14 N14        -3.0530   -0.2790  -13.3180 N.ar      1 UNK         0.0000 
     15 C15        -1.8120   -0.7790  -13.4340 C.ar      1 UNK         0.0000 
     16 N16        -0.8560   -0.3220  -12.6100 N.ar      1 UNK         0.0000 
     17 C17        -1.1320    0.6210  -11.6810 C.ar      1 UNK         0.0000 
     18 N18        -0.0930    1.1210  -10.8260 N.pl3     1 UNK         0.0000 
     19 C19        -2.3880    1.1570  -11.5280 C.ar      1 UNK         0.0000 
     20 C20        -2.3100    2.5020   -8.3440 C.ar      1 UNK         0.0000 
     21 C21        -1.7370    3.2460   -7.3170 C.ar      1 UNK         0.0000 
     22 C22        -1.1520    4.4460   -7.6510 C.ar      1 UNK         0.0000 
     23 O23        -0.5350    5.3630   -6.9090 O.3       1 UNK         0.0000 
     24 H24         0.5859    7.5646   -6.1363 H         1 UNK         0.0000 
     25 H25         1.6056    7.5188   -7.6144 H         1 UNK         0.0000 
     26 H26         0.0648    8.4422   -7.6144 H         1 UNK         0.0000 
     27 H27        -1.7124    4.4688  -11.0120 H         1 UNK         0.0000 
     28 H28        -6.4552    1.9124  -12.4367 H         1 UNK         0.0000 
     29 H29        -4.4411    1.2539  -14.4644 H         1 UNK         0.0000 
     30 H30        -5.8774    0.2045  -14.7142 H         1 UNK         0.0000 
     31 H31        -6.0598    1.9915  -14.7142 H         1 UNK         0.0000 
     32 H32        -6.4192   -0.3248  -11.3069 H         1 UNK         0.0000 
     33 H33        -7.3873   -0.2843  -12.8194 H         1 UNK         0.0000 
     34 H34        -5.7520   -1.0276  -12.8194 H         1 UNK         0.0000 
     35 H35        -1.5838   -1.5466  -14.1881 H         1 UNK         0.0000 
     36 H36         0.6750    1.6850  -11.2430 H         1 UNK         0.0000 
     37 H37        -0.0680    0.9460   -9.7980 H         1 UNK         0.0000 
     38 H38        -2.7809    1.5416   -8.0872 H         1 UNK         0.0000 
     39 H39        -1.7512    2.8882   -6.2769 H         1 UNK         0.0000 
@<TRIPOS>BOND
     1    1    2 1    
     2    1   24 1    
     3    1   25 1    
     4    1   26 1    
     5    2    3 2    
     6    2   23 1    
     7    3    4 1    
     8    4    5 ar   
     9    4   22 ar   
    10    5    6 ar   
    11    5   27 1    
    12    6    7 1    
    13    6   20 ar   
    14    7    8 ar   
    15    7   19 ar   
    16    8    9 ar   
    17    9   10 1    
    18    9   13 ar   
    19   10   11 1    
    20   10   12 1    
    21   10   28 1    
    22   11   29 1    
    23   11   30 1    
    24   11   31 1    
    25   12   32 1    
    26   12   33 1    
    27   12   34 1    
    28   13   14 ar   
    29   13   19 ar   
    30   14   15 ar   
    31   15   16 ar   
    32   15   35 1    
    33   16   17 ar   
    34   17   18 1    
    35   17   19 ar   
    36   18   36 1    
    37   18   37 1    
    38   20   21 ar   
    39   20   38 1    
    40   21   22 ar   
    41   21   39 1    
    42   22   23 1    
@<TRIPOS>SUBSTRUCTURE
     1 UNK         1 GROUP             0       ****    0 ROOT    
