@<TRIPOS>MOLECULE
LOLPPWBBNUVNQZ-UHFFFAOYSA-N_-8.002
50   54    1
SMALL
USER_CHARGES


@<TRIPOS>ATOM
      1 O1         -1.5630   -0.2760  -11.8460 O.2       1 UNK         0.0000 
      2 C2         -1.6630    0.2920  -12.9530 C.2       1 UNK         0.0000 
      3 N3         -2.9160    0.6130  -13.4890 N.am      1 UNK         0.0000 
      4 C4         -4.1760    0.3480  -12.8770 C.ar      1 UNK         0.0000 
      5 C5         -5.1980   -0.3990  -13.4360 C.ar      1 UNK         0.0000 
      6 N6         -6.1920   -0.3780  -12.4950 N.2       1 UNK         0.0000 
      7 N7         -5.8110    0.3240  -11.4430 N.ar      1 UNK         0.0000 
      8 C8         -4.5690    0.7950  -11.6330 C.ar      1 UNK         0.0000 
      9 C9         -3.7930    1.6090  -10.7160 C.ar      1 UNK         0.0000 
     10 N10        -3.2800    2.8480  -10.9940 N.ar      1 UNK         0.0000 
     11 C11        -2.6160    3.3230   -9.9270 C.ar      1 UNK         0.0000 
     12 C12        -1.9190    4.5010   -9.6670 C.ar      1 UNK         0.0000 
     13 C13        -1.3130    4.7460   -8.4560 C.ar      1 UNK         0.0000 
     14 C14        -0.5680    5.9880   -8.1580 C.3       1 UNK         0.0000 
     15 N15        -0.2480    6.1630   -6.7770 N.4       1 UNK         0.0000 
     16 C16         1.2160    6.0600   -6.6660 C.3       1 UNK         0.0000 
     17 C17         1.5140    6.0320   -5.1810 C.3       1 UNK         0.0000 
     18 O18         1.1270    7.2300   -4.6180 O.3       1 UNK         0.0000 
     19 C19        -0.1970    7.5570   -4.8380 C.3       1 UNK         0.0000 
     20 C20        -0.5780    7.4870   -6.2860 C.3       1 UNK         0.0000 
     21 C21        -1.4150    3.7720   -7.4830 C.ar      1 UNK         0.0000 
     22 C22        -2.0970    2.5930   -7.7010 C.ar      1 UNK         0.0000 
     23 C23        -2.6980    2.3720   -8.9310 C.ar      1 UNK         0.0000 
     24 N24        -3.4130    1.3690   -9.4590 N.2       1 UNK         0.0000 
     25 N25        -0.4260    0.5840  -13.6150 N.am      1 UNK         0.0000 
     26 C26         0.8520    0.2340  -13.0250 C.3       1 UNK         0.0000 
     27 C27         1.5380    1.1640  -12.1000 C.3       1 UNK         0.0000 
     28 C28         2.0000    1.0960  -13.5170 C.3       1 UNK         0.0000 
     29 H29        -2.8960    1.0960  -14.4360 H         1 UNK         0.0000 
     30 H30        -5.2092   -0.8977  -14.4164 H         1 UNK         0.0000 
     31 H31        -1.8507    5.2624  -10.4579 H         1 UNK         0.0000 
     32 H32         0.3713    5.9723   -8.7302 H         1 UNK         0.0000 
     33 H33        -1.2246    6.8248   -8.4383 H         1 UNK         0.0000 
     34 H34        -0.6060    5.4040   -6.1480 H         1 UNK         0.0000 
     35 H35         1.5730    5.1370   -7.1462 H         1 UNK         0.0000 
     36 H36         1.7209    6.9000   -7.1655 H         1 UNK         0.0000 
     37 H37         0.9586    5.2077   -4.7098 H         1 UNK         0.0000 
     38 H38         2.5921    5.8808   -5.0233 H         1 UNK         0.0000 
     39 H39        -0.8307    6.8573   -4.2733 H         1 UNK         0.0000 
     40 H40        -0.3418    8.5958   -4.5065 H         1 UNK         0.0000 
     41 H41        -1.6576    7.6668   -6.3963 H         1 UNK         0.0000 
     42 H42        -0.0342    8.2519   -6.8598 H         1 UNK         0.0000 
     43 H43        -0.9388    3.9409   -6.5059 H         1 UNK         0.0000 
     44 H44        -2.1635    1.8351   -6.9065 H         1 UNK         0.0000 
     45 H45        -0.4770    1.0590  -14.5430 H         1 UNK         0.0000 
     46 H46         0.6003   -0.8339  -12.9462 H         1 UNK         0.0000 
     47 H47         1.0135    2.0610  -11.7391 H         1 UNK         0.0000 
     48 H48         2.0320    1.0530  -11.1234 H         1 UNK         0.0000 
     49 H49         1.8076    1.9347  -14.2022 H         1 UNK         0.0000 
     50 H50         2.9601    0.9103  -14.0207 H         1 UNK         0.0000 
@<TRIPOS>BOND
     1    1    2 2    
     2    2    3 am   BACKBONE|DICT|INTERRES
     3    2   25 am   BACKBONE|DICT|INTERRES
     4    3    4 1    
     5    3   29 1    
     6    4    5 ar   
     7    4    8 ar   
     8    5    6 ar   
     9    5   30 1    
    10    6    7 ar   
    11    7    8 ar   
    12    8    9 1    
    13    9   10 ar   
    14    9   24 ar   
    15   10   11 ar   
    16   11   12 ar   
    17   11   23 ar   
    18   12   13 ar   
    19   12   31 1    
    20   13   14 1    
    21   13   21 ar   
    22   14   15 1    
    23   14   32 1    
    24   14   33 1    
    25   15   16 1    
    26   15   20 1    
    27   15   34 1    
    28   16   17 1    
    29   16   35 1    
    30   16   36 1    
    31   17   18 1    
    32   17   37 1    
    33   17   38 1    
    34   18   19 1    
    35   19   20 1    
    36   19   39 1    
    37   19   40 1    
    38   20   41 1    
    39   20   42 1    
    40   21   22 ar   
    41   21   43 1    
    42   22   23 ar   
    43   22   44 1    
    44   23   24 ar   
    45   25   26 1    
    46   25   45 1    
    47   26   27 1    
    48   26   28 1    
    49   26   46 1    
    50   27   28 1    
    51   27   47 1    
    52   27   48 1    
    53   28   49 1    
    54   28   50 1    
@<TRIPOS>SUBSTRUCTURE
     1 UNK         1 GROUP             0       ****    0 ROOT    
