@<TRIPOS>MOLECULE
YYLKKYCXAOBSRM-JXMROGBWSA-N_-8.597
45   48    1
SMALL
USER_CHARGES


@<TRIPOS>ATOM
      1 O1         -0.9600    7.6310   -7.4820 O.2       1 UNK         0.0000 
      2 C2         -0.3230    6.5900   -7.3380 C.2       1 UNK         0.0000 
      3 C3         -0.8890    5.4880   -8.0830 C.ar      1 UNK         0.0000 
      4 C4         -1.3510    4.3630   -7.4200 C.ar      1 UNK         0.0000 
      5 C5         -1.8930    3.2940   -8.0650 C.ar      1 UNK         0.0000 
      6 C6         -2.0070    3.2860   -9.4330 C.ar      1 UNK         0.0000 
      7 C7         -2.6100    2.0980  -10.1070 C.2       1 UNK         0.0000 
      8 C8         -2.3920    1.8950  -11.3620 C.2       1 UNK         0.0000 
      9 C9         -2.8690    0.8210  -12.2100 C.ar      1 UNK         0.0000 
     10 N10        -2.0550    0.0390  -13.0080 N.2       1 UNK         0.0000 
     11 N11        -2.7600   -0.8420  -13.6560 N.ar      1 UNK         0.0000 
     12 C12        -4.0660   -0.7260  -13.3550 C.ar      1 UNK         0.0000 
     13 C13        -5.1940   -1.4140  -13.7720 C.ar      1 UNK         0.0000 
     14 C14        -6.4280   -1.0660  -13.2830 C.ar      1 UNK         0.0000 
     15 C15        -6.5320   -0.0490  -12.3920 C.ar      1 UNK         0.0000 
     16 C16        -5.3880    0.6300  -11.9860 C.ar      1 UNK         0.0000 
     17 C17        -4.1230    0.3320  -12.4370 C.ar      1 UNK         0.0000 
     18 C18        -1.5660    4.3720  -10.1300 C.ar      1 UNK         0.0000 
     19 C19        -1.0280    5.4250   -9.4520 C.ar      1 UNK         0.0000 
     20 N20         0.6110    7.0870   -6.5140 N.4       1 UNK         0.0000 
     21 C21         1.7250    6.2430   -6.2810 C.3       1 UNK         0.0000 
     22 C22         1.8010    5.5640   -4.9380 C.3       1 UNK         0.0000 
     23 N23         1.9860    6.5170   -3.8470 N.3       1 UNK         0.0000 
     24 C24         1.3380    7.7540   -4.3210 C.3       1 UNK         0.0000 
     25 C25         0.1350    7.3080   -5.0750 C.3       1 UNK         0.0000 
     26 H26        -1.2765    4.3322   -6.3230 H         1 UNK         0.0000 
     27 H27        -2.2432    2.4279   -7.4843 H         1 UNK         0.0000 
     28 H28        -3.2378    1.3985   -9.5355 H         1 UNK         0.0000 
     29 H29        -1.7547    2.6418  -11.8581 H         1 UNK         0.0000 
     30 H30        -5.1005   -2.2383  -14.4943 H         1 UNK         0.0000 
     31 H31        -7.3268   -1.6084  -13.6115 H         1 UNK         0.0000 
     32 H32        -7.5160    0.2375  -11.9924 H         1 UNK         0.0000 
     33 H33        -5.5012    1.4517  -11.2635 H         1 UNK         0.0000 
     34 H34        -1.6436    4.3979  -11.2270 H         1 UNK         0.0000 
     35 H35        -0.6797    6.2866  -10.0405 H         1 UNK         0.0000 
     36 H36         0.7380    8.0540   -6.6240 H         1 UNK         0.0000 
     37 H37         1.7118    5.4565   -7.0500 H         1 UNK         0.0000 
     38 H38         2.5995    6.9095   -6.3135 H         1 UNK         0.0000 
     39 H39         0.8667    5.0087   -4.7685 H         1 UNK         0.0000 
     40 H40         2.6708    4.8908   -4.9491 H         1 UNK         0.0000 
     41 H41         1.4170    6.2330   -2.9980 H         1 UNK         0.0000 
     42 H42         1.0457    8.3857   -3.4692 H         1 UNK         0.0000 
     43 H43         2.0135    8.3545   -4.9480 H         1 UNK         0.0000 
     44 H44        -0.2581    6.3716   -4.6523 H         1 UNK         0.0000 
     45 H45        -0.6763    8.0490   -5.0233 H         1 UNK         0.0000 
@<TRIPOS>BOND
     1    1    2 2    
     2    2    3 1    
     3    2   20 1    
     4    3    4 ar   
     5    3   19 ar   
     6    4    5 ar   
     7    4   26 1    
     8    5    6 ar   
     9    5   27 1    
    10    6    7 1    
    11    6   18 ar   
    12    7    8 2    
    13    7   28 1    
    14    8    9 1    
    15    8   29 1    
    16    9   10 ar   
    17    9   17 ar   
    18   10   11 ar   
    19   11   12 ar   
    20   12   13 ar   
    21   12   17 ar   
    22   13   14 ar   
    23   13   30 1    
    24   14   15 ar   
    25   14   31 1    
    26   15   16 ar   
    27   15   32 1    
    28   16   17 ar   
    29   16   33 1    
    30   18   19 ar   
    31   18   34 1    
    32   19   35 1    
    33   20   21 1    
    34   20   25 1    
    35   20   36 1    
    36   21   22 1    
    37   21   37 1    
    38   21   38 1    
    39   22   23 1    
    40   22   39 1    
    41   22   40 1    
    42   23   24 1    
    43   23   41 1    
    44   24   25 1    
    45   24   42 1    
    46   24   43 1    
    47   25   44 1    
    48   25   45 1    
@<TRIPOS>SUBSTRUCTURE
     1 UNK         1 GROUP             0       ****    0 ROOT    
