
     RDKit          3D

 41 44  0  0  0  0  0  0  0  0999 V2000
    1.8590    1.0240  -13.4310 C   0  0  0  0  0  0  0  0  0  0  0  0
    0.4440    1.1580  -13.8330 C   0  0  0  0  0  0  0  0  0  0  0  0
    0.1710    1.3850  -15.0290 O   0  0  0  0  0  0  0  0  0  0  0  0
   -0.5890    1.0200  -12.8120 C   0  0  0  0  0  0  0  0  0  0  0  0
   -0.3190    1.2670  -11.4910 C   0  0  0  0  0  0  0  0  0  0  0  0
   -1.2850    1.1390  -10.5200 C   0  0  0  0  0  0  0  0  0  0  0  0
   -2.5570    0.7500  -10.8980 C   0  0  0  0  0  0  0  0  0  0  0  0
   -2.8890    0.4870  -12.2080 C   0  0  0  0  0  0  0  0  0  0  0  0
   -4.2150    0.0740  -12.6520 C   0  0  0  0  0  0  0  0  0  0  0  0
   -4.5120   -0.8560  -13.6180 C   0  0  0  0  0  0  0  0  0  0  0  0
   -5.8430   -0.9440  -13.7270 N   0  0  0  0  0  0  0  0  0  0  0  0
   -6.4300   -0.0950  -12.8570 C   0  0  0  0  0  0  0  0  0  0  0  0
   -7.7610    0.1650  -12.6070 C   0  0  0  0  0  0  0  0  0  0  0  0
   -8.0430    1.1110  -11.6330 C   0  0  0  0  0  0  0  0  0  0  0  0
   -6.9900    1.7320  -10.9760 C   0  0  0  0  0  0  0  0  0  0  0  0
   -7.2450    2.7050   -9.9740 N   0  0  0  0  0  0  0  0  0  0  0  0
   -6.3020    2.9700   -8.9150 C   0  0  0  0  0  0  0  0  0  0  0  0
   -6.9450    3.7080   -7.7880 C   0  0  0  0  0  0  0  0  0  0  0  0
   -6.5830    5.1360   -7.5260 C   0  0  0  0  0  0  0  0  0  0  0  0
   -7.8960    4.8130   -8.0970 C   0  0  0  0  0  0  0  0  0  0  0  0
   -5.7300    1.4010  -11.3010 N   0  0  0  0  0  0  0  0  0  0  0  0
   -5.4140    0.5180  -12.2100 N   0  0  0  0  0  0  0  0  0  0  0  0
   -1.8870    0.6280  -13.1440 C   0  0  0  0  0  0  0  0  0  0  0  0
    1.9293    1.0173  -12.3333 H   0  0  0  0  0  0  0  0  0  0  0  0
    2.2661    0.0833  -13.8302 H   0  0  0  0  0  0  0  0  0  0  0  0
    2.4354    1.8716  -13.8302 H   0  0  0  0  0  0  0  0  0  0  0  0
    0.6960    1.5754  -11.1999 H   0  0  0  0  0  0  0  0  0  0  0  0
   -1.0504    1.3419   -9.4646 H   0  0  0  0  0  0  0  0  0  0  0  0
   -3.3317    0.6469  -10.1239 H   0  0  0  0  0  0  0  0  0  0  0  0
   -3.7796   -1.4314  -14.2033 H   0  0  0  0  0  0  0  0  0  0  0  0
   -8.5616   -0.3538  -13.1546 H   0  0  0  0  0  0  0  0  0  0  0  0
   -9.0842    1.3650  -11.3852 H   0  0  0  0  0  0  0  0  0  0  0  0
   -8.1330    3.2450   -9.9990 H   0  0  0  0  0  0  0  0  0  0  0  0
   -5.9078    2.0144   -8.5389 H   0  0  0  0  0  0  0  0  0  0  0  0
   -5.4911    3.5932   -9.3202 H   0  0  0  0  0  0  0  0  0  0  0  0
   -6.9715    2.7882   -7.1853 H   0  0  0  0  0  0  0  0  0  0  0  0
   -6.5094    5.5028   -6.4916 H   0  0  0  0  0  0  0  0  0  0  0  0
   -5.7496    5.7913   -7.8192 H   0  0  0  0  0  0  0  0  0  0  0  0
   -8.8040    4.9403   -7.4893 H   0  0  0  0  0  0  0  0  0  0  0  0
   -8.4482    5.1298   -8.9941 H   0  0  0  0  0  0  0  0  0  0  0  0
   -2.1205    0.4226  -14.1991 H   0  0  0  0  0  0  0  0  0  0  0  0
  1  2  1  0
  2  3  2  0
  2  4  1  0
  4  5  2  0
  5  6  1  0
  6  7  2  0
  7  8  1  0
  8  9  1  0
  9 10  2  0
 10 11  1  0
 11 12  2  0
 12 13  1  0
 13 14  2  0
 14 15  1  0
 15 16  1  0
 16 17  1  0
 17 18  1  0
 18 19  1  0
 19 20  1  0
 15 21  2  0
 21 22  1  0
  8 23  2  0
 23  4  1  0
 22  9  1  0
 22 12  1  0
 20 18  1  0
  1 24  1  0
  1 25  1  0
  1 26  1  0
  5 27  1  0
  6 28  1  0
  7 29  1  0
 10 30  1  0
 13 31  1  0
 14 32  1  0
 16 33  1  0
 17 34  1  0
 17 35  1  0
 18 36  1  0
 19 37  1  0
 19 38  1  0
 20 39  1  0
 20 40  1  0
 23 41  1  0
M  END
$$$$

     RDKit          3D

 41 44  0  0  0  0  0  0  0  0999 V2000
    1.9110    1.0630  -13.7120 C   0  0  0  0  0  0  0  0  0  0  0  0
    1.2740    0.5820  -12.4700 C   0  0  0  0  0  0  0  0  0  0  0  0
    1.9940    0.1700  -11.5380 O   0  0  0  0  0  0  0  0  0  0  0  0
   -0.1820    0.6060  -12.3760 C   0  0  0  0  0  0  0  0  0  0  0  0
   -0.9640   -0.0420  -13.2980 C   0  0  0  0  0  0  0  0  0  0  0  0
   -2.3370   -0.0250  -13.2190 C   0  0  0  0  0  0  0  0  0  0  0  0
   -2.9330    0.6660  -12.1810 C   0  0  0  0  0  0  0  0  0  0  0  0
   -2.2020    1.3360  -11.2250 C   0  0  0  0  0  0  0  0  0  0  0  0
   -2.7870    2.0780  -10.1140 C   0  0  0  0  0  0  0  0  0  0  0  0
   -2.1250    2.8650   -9.2040 C   0  0  0  0  0  0  0  0  0  0  0  0
   -3.0210    3.3660   -8.3460 N   0  0  0  0  0  0  0  0  0  0  0  0
   -4.2560    2.9290   -8.6680 C   0  0  0  0  0  0  0  0  0  0  0  0
   -5.4820    3.1730   -8.0830 C   0  0  0  0  0  0  0  0  0  0  0  0
   -6.5850    2.5630   -8.6620 C   0  0  0  0  0  0  0  0  0  0  0  0
   -6.3990    1.7580   -9.7770 C   0  0  0  0  0  0  0  0  0  0  0  0
   -7.5070    1.1190  -10.3920 N   0  0  0  0  0  0  0  0  0  0  0  0
   -7.9240    1.4470  -11.7340 C   0  0  0  0  0  0  0  0  0  0  0  0
   -7.7060    0.3010  -12.6650 C   0  0  0  0  0  0  0  0  0  0  0  0
   -6.4560    0.2290  -13.4840 C   0  0  0  0  0  0  0  0  0  0  0  0
   -6.6390   -0.6910  -12.3540 C   0  0  0  0  0  0  0  0  0  0  0  0
   -5.1580    1.5900  -10.2620 N   0  0  0  0  0  0  0  0  0  0  0  0
   -4.0890    2.1410   -9.7530 N   0  0  0  0  0  0  0  0  0  0  0  0
   -0.8300    1.2910  -11.3470 C   0  0  0  0  0  0  0  0  0  0  0  0
    2.7655    1.7082  -13.4598 H   0  0  0  0  0  0  0  0  0  0  0  0
    2.2623    0.2028  -14.3008 H   0  0  0  0  0  0  0  0  0  0  0  0
    1.1799    1.6363  -14.3008 H   0  0  0  0  0  0  0  0  0  0  0  0
   -0.4809   -0.5889  -14.1211 H   0  0  0  0  0  0  0  0  0  0  0  0
   -2.9485   -0.5509  -13.9670 H   0  0  0  0  0  0  0  0  0  0  0  0
   -4.0310    0.6815  -12.1160 H   0  0  0  0  0  0  0  0  0  0  0  0
   -1.0412    3.0519   -9.1839 H   0  0  0  0  0  0  0  0  0  0  0  0
   -5.5798    3.8207   -7.1993 H   0  0  0  0  0  0  0  0  0  0  0  0
   -7.5911    2.7149   -8.2440 H   0  0  0  0  0  0  0  0  0  0  0  0
   -8.0380    0.3950   -9.8680 H   0  0  0  0  0  0  0  0  0  0  0  0
   -8.9939    1.7024  -11.7244 H   0  0  0  0  0  0  0  0  0  0  0  0
   -7.3236    2.2990  -12.0856 H   0  0  0  0  0  0  0  0  0  0  0  0
   -8.7833    0.2598  -12.8835 H   0  0  0  0  0  0  0  0  0  0  0  0
   -6.4962   -0.1527  -14.5149 H   0  0  0  0  0  0  0  0  0  0  0  0
   -5.6796    0.9499  -13.7798 H   0  0  0  0  0  0  0  0  0  0  0  0
   -6.8140   -1.7607  -12.5412 H   0  0  0  0  0  0  0  0  0  0  0  0
   -6.0528   -0.9407  -11.4573 H   0  0  0  0  0  0  0  0  0  0  0  0
   -0.2184    1.8184  -10.6002 H   0  0  0  0  0  0  0  0  0  0  0  0
  1  2  1  0
  2  3  2  0
  2  4  1  0
  4  5  2  0
  5  6  1  0
  6  7  2  0
  7  8  1  0
  8  9  1  0
  9 10  2  0
 10 11  1  0
 11 12  2  0
 12 13  1  0
 13 14  2  0
 14 15  1  0
 15 16  1  0
 16 17  1  0
 17 18  1  0
 18 19  1  0
 19 20  1  0
 15 21  2  0
 21 22  1  0
  8 23  2  0
 23  4  1  0
 22  9  1  0
 22 12  1  0
 20 18  1  0
  1 24  1  0
  1 25  1  0
  1 26  1  0
  5 27  1  0
  6 28  1  0
  7 29  1  0
 10 30  1  0
 13 31  1  0
 14 32  1  0
 16 33  1  0
 17 34  1  0
 17 35  1  0
 18 36  1  0
 19 37  1  0
 19 38  1  0
 20 39  1  0
 20 40  1  0
 23 41  1  0
M  END
$$$$

     RDKit          3D

 41 44  0  0  0  0  0  0  0  0999 V2000
    1.9520    1.1440  -13.6150 C   0  0  0  0  0  0  0  0  0  0  0  0
    0.5450    1.2720  -14.0460 C   0  0  0  0  0  0  0  0  0  0  0  0
    0.2970    1.5160  -15.2440 O   0  0  0  0  0  0  0  0  0  0  0  0
   -0.5090    1.1090  -13.0510 C   0  0  0  0  0  0  0  0  0  0  0  0
   -0.3230    1.4940  -11.7480 C   0  0  0  0  0  0  0  0  0  0  0  0
   -1.3100    1.3450  -10.8020 C   0  0  0  0  0  0  0  0  0  0  0  0
   -2.5170    0.7890  -11.1850 C   0  0  0  0  0  0  0  0  0  0  0  0
   -2.7640    0.3820  -12.4770 C   0  0  0  0  0  0  0  0  0  0  0  0
   -4.0200   -0.2080  -12.9260 C   0  0  0  0  0  0  0  0  0  0  0  0
   -4.1750   -1.2770  -13.7740 C   0  0  0  0  0  0  0  0  0  0  0  0
   -5.4840   -1.5050  -13.9340 N   0  0  0  0  0  0  0  0  0  0  0  0
   -6.1950   -0.6120  -13.2130 C   0  0  0  0  0  0  0  0  0  0  0  0
   -7.5560   -0.4500  -13.0630 C   0  0  0  0  0  0  0  0  0  0  0  0
   -7.9780    0.5810  -12.2370 C   0  0  0  0  0  0  0  0  0  0  0  0
   -7.0250    1.3770  -11.6190 C   0  0  0  0  0  0  0  0  0  0  0  0
   -7.4240    2.4410  -10.7670 N   0  0  0  0  0  0  0  0  0  0  0  0
   -7.0690    2.4700   -9.3690 C   0  0  0  0  0  0  0  0  0  0  0  0
   -5.6660    2.9400   -9.1760 C   0  0  0  0  0  0  0  0  0  0  0  0
   -5.1260    3.1360   -7.7940 C   0  0  0  0  0  0  0  0  0  0  0  0
   -4.6600    2.0020   -8.6020 C   0  0  0  0  0  0  0  0  0  0  0  0
   -5.7230    1.1290  -11.8370 N   0  0  0  0  0  0  0  0  0  0  0  0
   -5.2780    0.1720  -12.6050 N   0  0  0  0  0  0  0  0  0  0  0  0
   -1.7440    0.5520  -13.3890 C   0  0  0  0  0  0  0  0  0  0  0  0
    1.9999    1.1396  -12.5161 H   0  0  0  0  0  0  0  0  0  0  0  0
    2.3706    0.2041  -14.0040 H   0  0  0  0  0  0  0  0  0  0  0  0
    2.5333    1.9930  -14.0040 H   0  0  0  0  0  0  0  0  0  0  0  0
    0.6409    1.9335  -11.4517 H   0  0  0  0  0  0  0  0  0  0  0  0
   -1.1428    1.6616   -9.7619 H   0  0  0  0  0  0  0  0  0  0  0  0
   -3.3081    0.6676  -10.4304 H   0  0  0  0  0  0  0  0  0  0  0  0
   -3.3608   -1.8492  -14.2426 H   0  0  0  0  0  0  0  0  0  0  0  0
   -8.2738   -1.1080  -13.5747 H   0  0  0  0  0  0  0  0  0  0  0  0
   -9.0504    0.7644  -12.0747 H   0  0  0  0  0  0  0  0  0  0  0  0
   -7.9880    3.2240  -11.1560 H   0  0  0  0  0  0  0  0  0  0  0  0
   -7.7513    3.1517   -8.8400 H   0  0  0  0  0  0  0  0  0  0  0  0
   -7.1515    1.4489   -8.9684 H   0  0  0  0  0  0  0  0  0  0  0  0
   -5.7392    3.5632  -10.0795 H   0  0  0  0  0  0  0  0  0  0  0  0
   -4.4475    3.9759   -7.5836 H   0  0  0  0  0  0  0  0  0  0  0  0
   -5.5728    3.2449   -6.7947 H   0  0  0  0  0  0  0  0  0  0  0  0
   -3.6322    1.9941   -8.9937 H   0  0  0  0  0  0  0  0  0  0  0  0
   -4.6148    0.9131   -8.4529 H   0  0  0  0  0  0  0  0  0  0  0  0
   -1.9105    0.2348  -14.4290 H   0  0  0  0  0  0  0  0  0  0  0  0
  1  2  1  0
  2  3  2  0
  2  4  1  0
  4  5  2  0
  5  6  1  0
  6  7  2  0
  7  8  1  0
  8  9  1  0
  9 10  2  0
 10 11  1  0
 11 12  2  0
 12 13  1  0
 13 14  2  0
 14 15  1  0
 15 16  1  0
 16 17  1  0
 17 18  1  0
 18 19  1  0
 19 20  1  0
 15 21  2  0
 21 22  1  0
  8 23  2  0
 23  4  1  0
 22  9  1  0
 22 12  1  0
 20 18  1  0
  1 24  1  0
  1 25  1  0
  1 26  1  0
  5 27  1  0
  6 28  1  0
  7 29  1  0
 10 30  1  0
 13 31  1  0
 14 32  1  0
 16 33  1  0
 17 34  1  0
 17 35  1  0
 18 36  1  0
 19 37  1  0
 19 38  1  0
 20 39  1  0
 20 40  1  0
 23 41  1  0
M  END
$$$$

     RDKit          3D

 41 44  0  0  0  0  0  0  0  0999 V2000
  -10.0000    1.8090  -11.7320 C   0  0  0  0  0  0  0  0  0  0  0  0
   -9.2670    0.7930  -12.5150 C   0  0  0  0  0  0  0  0  0  0  0  0
   -9.8990    0.0670  -13.3100 O   0  0  0  0  0  0  0  0  0  0  0  0
   -7.8250    0.6740  -12.3300 C   0  0  0  0  0  0  0  0  0  0  0  0
   -7.0580   -0.0670  -13.1910 C   0  0  0  0  0  0  0  0  0  0  0  0
   -5.6970   -0.1860  -13.0270 C   0  0  0  0  0  0  0  0  0  0  0  0
   -5.0990    0.4620  -11.9620 C   0  0  0  0  0  0  0  0  0  0  0  0
   -5.8160    1.2200  -11.0630 C   0  0  0  0  0  0  0  0  0  0  0  0
   -5.2290    1.9200   -9.9260 C   0  0  0  0  0  0  0  0  0  0  0  0
   -5.8900    2.4250   -8.8340 C   0  0  0  0  0  0  0  0  0  0  0  0
   -4.9920    2.9920   -8.0200 N   0  0  0  0  0  0  0  0  0  0  0  0
   -3.7570    2.8750   -8.5490 C   0  0  0  0  0  0  0  0  0  0  0  0
   -2.5290    3.2980   -8.0830 C   0  0  0  0  0  0  0  0  0  0  0  0
   -1.4260    3.0180   -8.8770 C   0  0  0  0  0  0  0  0  0  0  0  0
   -1.6150    2.3400  -10.0720 C   0  0  0  0  0  0  0  0  0  0  0  0
   -0.5070    2.0390  -10.9070 N   0  0  0  0  0  0  0  0  0  0  0  0
   -0.6730    1.3910  -12.1860 C   0  0  0  0  0  0  0  0  0  0  0  0
    0.2840    1.9320  -13.1960 C   0  0  0  0  0  0  0  0  0  0  0  0
    1.3430    1.0470  -13.7730 C   0  0  0  0  0  0  0  0  0  0  0  0
    0.2010    1.4490  -14.6030 C   0  0  0  0  0  0  0  0  0  0  0  0
   -2.8570    1.9750  -10.4280 N   0  0  0  0  0  0  0  0  0  0  0  0
   -3.9260    2.2150   -9.7170 N   0  0  0  0  0  0  0  0  0  0  0  0
   -7.1760    1.3090  -11.2700 C   0  0  0  0  0  0  0  0  0  0  0  0
   -9.8603    1.6154  -10.6582 H   0  0  0  0  0  0  0  0  0  0  0  0
   -9.6143    2.8095  -11.9774 H   0  0  0  0  0  0  0  0  0  0  0  0
  -11.0711    1.7585  -11.9774 H   0  0  0  0  0  0  0  0  0  0  0  0
   -7.5429   -0.5797  -14.0348 H   0  0  0  0  0  0  0  0  0  0  0  0
   -5.0972   -0.7843  -13.7286 H   0  0  0  0  0  0  0  0  0  0  0  0
   -4.0112    0.3687  -11.8279 H   0  0  0  0  0  0  0  0  0  0  0  0
   -6.9745    2.3724   -8.6579 H   0  0  0  0  0  0  0  0  0  0  0  0
   -2.4291    3.8323   -7.1267 H   0  0  0  0  0  0  0  0  0  0  0  0
   -0.4183    3.3287   -8.5638 H   0  0  0  0  0  0  0  0  0  0  0  0
    0.4530    2.2890  -10.5950 H   0  0  0  0  0  0  0  0  0  0  0  0
   -0.4961    0.3119  -12.0667 H   0  0  0  0  0  0  0  0  0  0  0  0
   -1.6967    1.5804  -12.5411 H   0  0  0  0  0  0  0  0  0  0  0  0
    0.2754    2.9114  -12.6953 H   0  0  0  0  0  0  0  0  0  0  0  0
    2.3437    1.4529  -13.9823 H   0  0  0  0  0  0  0  0  0  0  0  0
    1.7920    0.0851  -13.4847 H   0  0  0  0  0  0  0  0  0  0  0  0
    0.3490    2.1543  -15.4340 H   0  0  0  0  0  0  0  0  0  0  0  0
   -0.5550    0.9091  -15.1920 H   0  0  0  0  0  0  0  0  0  0  0  0
   -7.7764    1.9070  -10.5686 H   0  0  0  0  0  0  0  0  0  0  0  0
  1  2  1  0
  2  3  2  0
  2  4  1  0
  4  5  2  0
  5  6  1  0
  6  7  2  0
  7  8  1  0
  8  9  1  0
  9 10  2  0
 10 11  1  0
 11 12  2  0
 12 13  1  0
 13 14  2  0
 14 15  1  0
 15 16  1  0
 16 17  1  0
 17 18  1  0
 18 19  1  0
 19 20  1  0
 15 21  2  0
 21 22  1  0
  8 23  2  0
 23  4  1  0
 22  9  1  0
 22 12  1  0
 20 18  1  0
  1 24  1  0
  1 25  1  0
  1 26  1  0
  5 27  1  0
  6 28  1  0
  7 29  1  0
 10 30  1  0
 13 31  1  0
 14 32  1  0
 16 33  1  0
 17 34  1  0
 17 35  1  0
 18 36  1  0
 19 37  1  0
 19 38  1  0
 20 39  1  0
 20 40  1  0
 23 41  1  0
M  END
$$$$

     RDKit          3D

 41 44  0  0  0  0  0  0  0  0999 V2000
   -1.7520    2.8100   -8.5310 C   0  0  0  0  0  0  0  0  0  0  0  0
   -1.4600    1.4280   -8.9630 C   0  0  0  0  0  0  0  0  0  0  0  0
   -1.0960    0.5900   -8.1120 O   0  0  0  0  0  0  0  0  0  0  0  0
   -1.6070    1.0900  -10.3740 C   0  0  0  0  0  0  0  0  0  0  0  0
   -0.5390    1.1420  -11.2330 C   0  0  0  0  0  0  0  0  0  0  0  0
   -0.6670    0.8260  -12.5650 C   0  0  0  0  0  0  0  0  0  0  0  0
   -1.9090    0.4480  -13.0410 C   0  0  0  0  0  0  0  0  0  0  0  0
   -3.0190    0.3770  -12.2290 C   0  0  0  0  0  0  0  0  0  0  0  0
   -4.3480   -0.0160  -12.6850 C   0  0  0  0  0  0  0  0  0  0  0  0
   -4.6490   -0.9420  -13.6530 C   0  0  0  0  0  0  0  0  0  0  0  0
   -5.9800   -1.0100  -13.7750 N   0  0  0  0  0  0  0  0  0  0  0  0
   -6.5620   -0.1500  -12.9120 C   0  0  0  0  0  0  0  0  0  0  0  0
   -7.8920    0.1310  -12.6750 C   0  0  0  0  0  0  0  0  0  0  0  0
   -8.1680    1.0830  -11.7050 C   0  0  0  0  0  0  0  0  0  0  0  0
   -7.1120    1.6880  -11.0390 C   0  0  0  0  0  0  0  0  0  0  0  0
   -7.3620    2.6670  -10.0410 N   0  0  0  0  0  0  0  0  0  0  0  0
   -6.3980    2.9620   -9.0090 C   0  0  0  0  0  0  0  0  0  0  0  0
   -7.0260    3.7070   -7.8780 C   0  0  0  0  0  0  0  0  0  0  0  0
   -6.6450    5.1310   -7.6170 C   0  0  0  0  0  0  0  0  0  0  0  0
   -7.9650    4.8240   -8.1800 C   0  0  0  0  0  0  0  0  0  0  0  0
   -5.8540    1.3370  -11.3510 N   0  0  0  0  0  0  0  0  0  0  0  0
   -5.5440    0.4480  -12.2560 N   0  0  0  0  0  0  0  0  0  0  0  0
   -2.8410    0.7040  -10.9010 C   0  0  0  0  0  0  0  0  0  0  0  0
   -1.7618    2.8563   -7.4320 H   0  0  0  0  0  0  0  0  0  0  0  0
   -0.9771    3.4871   -8.9196 H   0  0  0  0  0  0  0  0  0  0  0  0
   -2.7346    3.1158   -8.9196 H   0  0  0  0  0  0  0  0  0  0  0  0
    0.4454    1.4443  -10.8463 H   0  0  0  0  0  0  0  0  0  0  0  0
    0.2014    0.8730  -13.2386 H   0  0  0  0  0  0  0  0  0  0  0  0
   -2.0142    0.1950  -14.1063 H   0  0  0  0  0  0  0  0  0  0  0  0
   -3.9195   -1.5288  -14.2306 H   0  0  0  0  0  0  0  0  0  0  0  0
   -8.6955   -0.3762  -13.2293 H   0  0  0  0  0  0  0  0  0  0  0  0
   -9.2073    1.3540  -11.4676 H   0  0  0  0  0  0  0  0  0  0  0  0
   -8.2610    3.1880  -10.0490 H   0  0  0  0  0  0  0  0  0  0  0  0
   -5.9801    2.0183   -8.6285 H   0  0  0  0  0  0  0  0  0  0  0  0
   -5.6064    3.5909   -9.4424 H   0  0  0  0  0  0  0  0  0  0  0  0
   -7.0605    2.7868   -7.2762 H   0  0  0  0  0  0  0  0  0  0  0  0
   -6.5606    5.4961   -6.5828 H   0  0  0  0  0  0  0  0  0  0  0  0
   -5.8056    5.7766   -7.9148 H   0  0  0  0  0  0  0  0  0  0  0  0
   -8.8676    4.9618   -7.5666 H   0  0  0  0  0  0  0  0  0  0  0  0
   -8.5188    5.1482   -9.0734 H   0  0  0  0  0  0  0  0  0  0  0  0
   -3.7094    0.6587  -10.2274 H   0  0  0  0  0  0  0  0  0  0  0  0
  1  2  1  0
  2  3  2  0
  2  4  1  0
  4  5  2  0
  5  6  1  0
  6  7  2  0
  7  8  1  0
  8  9  1  0
  9 10  2  0
 10 11  1  0
 11 12  2  0
 12 13  1  0
 13 14  2  0
 14 15  1  0
 15 16  1  0
 16 17  1  0
 17 18  1  0
 18 19  1  0
 19 20  1  0
 15 21  2  0
 21 22  1  0
  8 23  2  0
 23  4  1  0
 22  9  1  0
 22 12  1  0
 20 18  1  0
  1 24  1  0
  1 25  1  0
  1 26  1  0
  5 27  1  0
  6 28  1  0
  7 29  1  0
 10 30  1  0
 13 31  1  0
 14 32  1  0
 16 33  1  0
 17 34  1  0
 17 35  1  0
 18 36  1  0
 19 37  1  0
 19 38  1  0
 20 39  1  0
 20 40  1  0
 23 41  1  0
M  END
$$$$

     RDKit          3D

 41 44  0  0  0  0  0  0  0  0999 V2000
   -8.0520    1.4540  -11.3550 C   0  0  0  0  0  0  0  0  0  0  0  0
   -7.8140    0.4660  -12.4270 C   0  0  0  0  0  0  0  0  0  0  0  0
   -8.7900   -0.0150  -13.0370 O   0  0  0  0  0  0  0  0  0  0  0  0
   -6.4390    0.0880  -12.7350 C   0  0  0  0  0  0  0  0  0  0  0  0
   -6.1620   -0.9160  -13.6280 C   0  0  0  0  0  0  0  0  0  0  0  0
   -4.8700   -1.2810  -13.9260 C   0  0  0  0  0  0  0  0  0  0  0  0
   -3.8310   -0.6120  -13.3030 C   0  0  0  0  0  0  0  0  0  0  0  0
   -4.0460    0.4030  -12.3980 C   0  0  0  0  0  0  0  0  0  0  0  0
   -2.9830    1.1350  -11.7180 C   0  0  0  0  0  0  0  0  0  0  0  0
   -1.6870    1.2940  -12.1400 C   0  0  0  0  0  0  0  0  0  0  0  0
   -1.0330    2.0300  -11.2330 N   0  0  0  0  0  0  0  0  0  0  0  0
   -1.8660    2.3580  -10.2250 C   0  0  0  0  0  0  0  0  0  0  0  0
   -1.6520    3.0960   -9.0790 C   0  0  0  0  0  0  0  0  0  0  0  0
   -2.7330    3.2560   -8.2250 C   0  0  0  0  0  0  0  0  0  0  0  0
   -3.9470    2.6780   -8.5640 C   0  0  0  0  0  0  0  0  0  0  0  0
   -5.0730    2.8230   -7.7110 N   0  0  0  0  0  0  0  0  0  0  0  0
   -6.3430    3.2990   -8.2030 C   0  0  0  0  0  0  0  0  0  0  0  0
   -6.6390    4.6730   -7.6990 C   0  0  0  0  0  0  0  0  0  0  0  0
   -8.0390    5.2000   -7.7420 C   0  0  0  0  0  0  0  0  0  0  0  0
   -7.4420    4.8290   -6.4530 C   0  0  0  0  0  0  0  0  0  0  0  0
   -4.0430    1.9790   -9.7070 N   0  0  0  0  0  0  0  0  0  0  0  0
   -3.0550    1.8000  -10.5420 N   0  0  0  0  0  0  0  0  0  0  0  0
   -5.3580    0.7320  -12.1320 C   0  0  0  0  0  0  0  0  0  0  0  0
   -7.9348    0.9675  -10.3754 H   0  0  0  0  0  0  0  0  0  0  0  0
   -7.3260    2.2754  -11.4457 H   0  0  0  0  0  0  0  0  0  0  0  0
   -9.0724    1.8548  -11.4457 H   0  0  0  0  0  0  0  0  0  0  0  0
   -6.9944   -1.4424  -14.1180 H   0  0  0  0  0  0  0  0  0  0  0  0
   -4.6666   -2.0883  -14.6449 H   0  0  0  0  0  0  0  0  0  0  0  0
   -2.7964   -0.9015  -13.5393 H   0  0  0  0  0  0  0  0  0  0  0  0
   -1.2580    0.8857  -13.0669 H   0  0  0  0  0  0  0  0  0  0  0  0
   -0.6698    3.5369   -8.8532 H   0  0  0  0  0  0  0  0  0  0  0  0
   -2.6290    3.8321   -7.2937 H   0  0  0  0  0  0  0  0  0  0  0  0
   -4.9870    2.5820   -6.7030 H   0  0  0  0  0  0  0  0  0  0  0  0
   -6.3169    3.3184   -9.3025 H   0  0  0  0  0  0  0  0  0  0  0  0
   -7.1309    2.6202   -7.8446 H   0  0  0  0  0  0  0  0  0  0  0  0
   -5.6619    5.0278   -8.0587 H   0  0  0  0  0  0  0  0  0  0  0  0
   -8.2200    6.2589   -7.9787 H   0  0  0  0  0  0  0  0  0  0  0  0
   -8.9566    4.9212   -8.2808 H   0  0  0  0  0  0  0  0  0  0  0  0
   -7.1786    5.6112   -5.7258 H   0  0  0  0  0  0  0  0  0  0  0  0
   -7.7321    4.1582   -5.6309 H   0  0  0  0  0  0  0  0  0  0  0  0
   -5.5618    1.5384  -11.4121 H   0  0  0  0  0  0  0  0  0  0  0  0
  1  2  1  0
  2  3  2  0
  2  4  1  0
  4  5  2  0
  5  6  1  0
  6  7  2  0
  7  8  1  0
  8  9  1  0
  9 10  2  0
 10 11  1  0
 11 12  2  0
 12 13  1  0
 13 14  2  0
 14 15  1  0
 15 16  1  0
 16 17  1  0
 17 18  1  0
 18 19  1  0
 19 20  1  0
 15 21  2  0
 21 22  1  0
  8 23  2  0
 23  4  1  0
 22  9  1  0
 22 12  1  0
 20 18  1  0
  1 24  1  0
  1 25  1  0
  1 26  1  0
  5 27  1  0
  6 28  1  0
  7 29  1  0
 10 30  1  0
 13 31  1  0
 14 32  1  0
 16 33  1  0
 17 34  1  0
 17 35  1  0
 18 36  1  0
 19 37  1  0
 19 38  1  0
 20 39  1  0
 20 40  1  0
 23 41  1  0
M  END
$$$$

     RDKit          3D

 41 44  0  0  0  0  0  0  0  0999 V2000
   -2.9750   -0.7490  -13.6600 C   0  0  0  0  0  0  0  0  0  0  0  0
   -4.3800   -1.1990  -13.5910 C   0  0  0  0  0  0  0  0  0  0  0  0
   -4.7010   -2.2760  -14.1330 O   0  0  0  0  0  0  0  0  0  0  0  0
   -5.3480   -0.3640  -12.8870 C   0  0  0  0  0  0  0  0  0  0  0  0
   -6.6600   -0.3100  -13.2820 C   0  0  0  0  0  0  0  0  0  0  0  0
   -7.5800    0.4740  -12.6260 C   0  0  0  0  0  0  0  0  0  0  0  0
   -7.1610    1.2220  -11.5420 C   0  0  0  0  0  0  0  0  0  0  0  0
   -5.8570    1.2100  -11.0980 C   0  0  0  0  0  0  0  0  0  0  0  0
   -5.3700    1.9820   -9.9600 C   0  0  0  0  0  0  0  0  0  0  0  0
   -6.1260    2.6100   -9.0010 C   0  0  0  0  0  0  0  0  0  0  0  0
   -5.3000    3.2080   -8.1350 N   0  0  0  0  0  0  0  0  0  0  0  0
   -4.0190    2.9900   -8.4990 C   0  0  0  0  0  0  0  0  0  0  0  0
   -2.8340    3.3990   -7.9240 C   0  0  0  0  0  0  0  0  0  0  0  0
   -1.6620    3.0020   -8.5530 C   0  0  0  0  0  0  0  0  0  0  0  0
   -1.7460    2.2290   -9.7020 C   0  0  0  0  0  0  0  0  0  0  0  0
   -0.5660    1.8070  -10.3690 N   0  0  0  0  0  0  0  0  0  0  0  0
   -0.6120    1.1590  -11.6570 C   0  0  0  0  0  0  0  0  0  0  0  0
    0.3010    1.8260  -12.6320 C   0  0  0  0  0  0  0  0  0  0  0  0
    1.3730    1.0360  -13.3140 C   0  0  0  0  0  0  0  0  0  0  0  0
    0.1980    1.4750  -14.0760 C   0  0  0  0  0  0  0  0  0  0  0  0
   -2.9560    1.8880  -10.1740 N   0  0  0  0  0  0  0  0  0  0  0  0
   -4.0860    2.2370   -9.6190 N   0  0  0  0  0  0  0  0  0  0  0  0
   -4.9720    0.4100  -11.7880 C   0  0  0  0  0  0  0  0  0  0  0  0
   -2.5800   -0.6225  -12.6412 H   0  0  0  0  0  0  0  0  0  0  0  0
   -2.3753   -1.5000  -14.1951 H   0  0  0  0  0  0  0  0  0  0  0  0
   -2.9232    0.2107  -14.1951 H   0  0  0  0  0  0  0  0  0  0  0  0
   -6.9849   -0.9090  -14.1455 H   0  0  0  0  0  0  0  0  0  0  0  0
   -8.6284    0.5051  -12.9575 H   0  0  0  0  0  0  0  0  0  0  0  0
   -7.8950    1.8493  -11.0150 H   0  0  0  0  0  0  0  0  0  0  0  0
   -7.2249    2.6197   -8.9529 H   0  0  0  0  0  0  0  0  0  0  0  0
   -2.8184    4.0109   -7.0101 H   0  0  0  0  0  0  0  0  0  0  0  0
   -0.6827    3.2955   -8.1471 H   0  0  0  0  0  0  0  0  0  0  0  0
    0.3590    1.9660   -9.9220 H   0  0  0  0  0  0  0  0  0  0  0  0
   -0.3068    0.1086  -11.5409 H   0  0  0  0  0  0  0  0  0  0  0  0
   -1.6401    1.2248  -12.0426 H   0  0  0  0  0  0  0  0  0  0  0  0
    0.2735    2.7531  -12.0406 H   0  0  0  0  0  0  0  0  0  0  0  0
    2.3545    1.4939  -13.5062 H   0  0  0  0  0  0  0  0  0  0  0  0
    1.8598    0.0672  -13.1285 H   0  0  0  0  0  0  0  0  0  0  0  0
    0.3021    2.2601  -14.8394 H   0  0  0  0  0  0  0  0  0  0  0  0
   -0.5551    0.9672  -14.6965 H   0  0  0  0  0  0  0  0  0  0  0  0
   -3.9231    0.3801  -11.4581 H   0  0  0  0  0  0  0  0  0  0  0  0
  1  2  1  0
  2  3  2  0
  2  4  1  0
  4  5  2  0
  5  6  1  0
  6  7  2  0
  7  8  1  0
  8  9  1  0
  9 10  2  0
 10 11  1  0
 11 12  2  0
 12 13  1  0
 13 14  2  0
 14 15  1  0
 15 16  1  0
 16 17  1  0
 17 18  1  0
 18 19  1  0
 19 20  1  0
 15 21  2  0
 21 22  1  0
  8 23  2  0
 23  4  1  0
 22  9  1  0
 22 12  1  0
 20 18  1  0
  1 24  1  0
  1 25  1  0
  1 26  1  0
  5 27  1  0
  6 28  1  0
  7 29  1  0
 10 30  1  0
 13 31  1  0
 14 32  1  0
 16 33  1  0
 17 34  1  0
 17 35  1  0
 18 36  1  0
 19 37  1  0
 19 38  1  0
 20 39  1  0
 20 40  1  0
 23 41  1  0
M  END
$$$$

     RDKit          3D

 41 44  0  0  0  0  0  0  0  0999 V2000
    0.5170    6.7400   -9.1450 C   0  0  0  0  0  0  0  0  0  0  0  0
   -0.8000    6.2870   -9.6360 C   0  0  0  0  0  0  0  0  0  0  0  0
   -1.5020    7.0730  -10.3050 O   0  0  0  0  0  0  0  0  0  0  0  0
   -1.2350    4.9300   -9.3220 C   0  0  0  0  0  0  0  0  0  0  0  0
   -1.5610    4.5680   -8.0410 C   0  0  0  0  0  0  0  0  0  0  0  0
   -1.9720    3.2910   -7.7330 C   0  0  0  0  0  0  0  0  0  0  0  0
   -2.0540    2.3580   -8.7510 C   0  0  0  0  0  0  0  0  0  0  0  0
   -1.7390    2.6620  -10.0560 C   0  0  0  0  0  0  0  0  0  0  0  0
   -1.8100    1.7110  -11.1610 C   0  0  0  0  0  0  0  0  0  0  0  0
   -0.7610    1.2150  -11.8940 C   0  0  0  0  0  0  0  0  0  0  0  0
   -1.2480    0.3720  -12.8130 N   0  0  0  0  0  0  0  0  0  0  0  0
   -2.5900    0.3010  -12.7030 C   0  0  0  0  0  0  0  0  0  0  0  0
   -3.5190   -0.4250  -13.4190 C   0  0  0  0  0  0  0  0  0  0  0  0
   -4.8490   -0.2770  -13.0540 C   0  0  0  0  0  0  0  0  0  0  0  0
   -5.1650    0.5760  -12.0060 C   0  0  0  0  0  0  0  0  0  0  0  0
   -6.5170    0.7500  -11.6070 N   0  0  0  0  0  0  0  0  0  0  0  0
   -7.5730   -0.0910  -12.1160 C   0  0  0  0  0  0  0  0  0  0  0  0
   -8.6040    0.7100  -12.8390 C   0  0  0  0  0  0  0  0  0  0  0  0
  -10.0000    0.1880  -12.9720 C   0  0  0  0  0  0  0  0  0  0  0  0
   -9.7270    1.3110  -12.0670 C   0  0  0  0  0  0  0  0  0  0  0  0
   -4.1780    1.2350  -11.3770 N   0  0  0  0  0  0  0  0  0  0  0  0
   -2.9130    1.1290  -11.6850 N   0  0  0  0  0  0  0  0  0  0  0  0
   -1.3320    3.9530  -10.3140 C   0  0  0  0  0  0  0  0  0  0  0  0
    0.5179    6.7403   -8.0450 H   0  0  0  0  0  0  0  0  0  0  0  0
    1.2992    6.0592   -9.5121 H   0  0  0  0  0  0  0  0  0  0  0  0
    0.7149    7.7579   -9.5121 H   0  0  0  0  0  0  0  0  0  0  0  0
   -1.4924    5.3172   -7.2385 H   0  0  0  0  0  0  0  0  0  0  0  0
   -2.2298    3.0181   -6.6991 H   0  0  0  0  0  0  0  0  0  0  0  0
   -2.3827    1.3365   -8.5090 H   0  0  0  0  0  0  0  0  0  0  0  0
    0.3000    1.4673  -11.7507 H   0  0  0  0  0  0  0  0  0  0  0  0
   -3.2189   -1.0907  -14.2416 H   0  0  0  0  0  0  0  0  0  0  0  0
   -5.6396   -0.8263  -13.5861 H   0  0  0  0  0  0  0  0  0  0  0  0
   -6.7590    1.5020  -10.9310 H   0  0  0  0  0  0  0  0  0  0  0  0
   -7.1413   -0.8282  -12.8089 H   0  0  0  0  0  0  0  0  0  0  0  0
   -8.0572   -0.5930  -11.2654 H   0  0  0  0  0  0  0  0  0  0  0  0
   -7.8405    1.0795  -13.5394 H   0  0  0  0  0  0  0  0  0  0  0  0
  -10.5630    0.3565  -13.9019 H   0  0  0  0  0  0  0  0  0  0  0  0
  -10.4730   -0.7991  -12.8630 H   0  0  0  0  0  0  0  0  0  0  0  0
  -10.0882    2.3187  -12.3200 H   0  0  0  0  0  0  0  0  0  0  0  0
   -9.9142    1.5081  -11.0011 H   0  0  0  0  0  0  0  0  0  0  0  0
   -1.0721    4.2256  -11.3475 H   0  0  0  0  0  0  0  0  0  0  0  0
  1  2  1  0
  2  3  2  0
  2  4  1  0
  4  5  2  0
  5  6  1  0
  6  7  2  0
  7  8  1  0
  8  9  1  0
  9 10  2  0
 10 11  1  0
 11 12  2  0
 12 13  1  0
 13 14  2  0
 14 15  1  0
 15 16  1  0
 16 17  1  0
 17 18  1  0
 18 19  1  0
 19 20  1  0
 15 21  2  0
 21 22  1  0
  8 23  2  0
 23  4  1  0
 22  9  1  0
 22 12  1  0
 20 18  1  0
  1 24  1  0
  1 25  1  0
  1 26  1  0
  5 27  1  0
  6 28  1  0
  7 29  1  0
 10 30  1  0
 13 31  1  0
 14 32  1  0
 16 33  1  0
 17 34  1  0
 17 35  1  0
 18 36  1  0
 19 37  1  0
 19 38  1  0
 20 39  1  0
 20 40  1  0
 23 41  1  0
M  END
$$$$

     RDKit          3D

 41 44  0  0  0  0  0  0  0  0999 V2000
   -1.7150    3.8610   -7.7800 C   0  0  0  0  0  0  0  0  0  0  0  0
   -2.2480    2.7570   -8.6030 C   0  0  0  0  0  0  0  0  0  0  0  0
   -1.4550    1.9280   -9.0950 O   0  0  0  0  0  0  0  0  0  0  0  0
   -3.6890    2.6730   -8.8130 C   0  0  0  0  0  0  0  0  0  0  0  0
   -4.5640    3.3640   -8.0150 C   0  0  0  0  0  0  0  0  0  0  0  0
   -5.9250    3.2930   -8.2030 C   0  0  0  0  0  0  0  0  0  0  0  0
   -6.4120    2.5010   -9.2270 C   0  0  0  0  0  0  0  0  0  0  0  0
   -5.5840    1.7830  -10.0610 C   0  0  0  0  0  0  0  0  0  0  0  0
   -6.0520    0.9350  -11.1520 C   0  0  0  0  0  0  0  0  0  0  0  0
   -7.3540    0.6400  -11.4700 C   0  0  0  0  0  0  0  0  0  0  0  0
   -7.3570   -0.1700  -12.5360 N   0  0  0  0  0  0  0  0  0  0  0  0
   -6.0890   -0.4150  -12.9270 C   0  0  0  0  0  0  0  0  0  0  0  0
   -5.5950   -1.1810  -13.9620 C   0  0  0  0  0  0  0  0  0  0  0  0
   -4.2160   -1.2310  -14.1020 C   0  0  0  0  0  0  0  0  0  0  0  0
   -3.4250   -0.5200  -13.2110 C   0  0  0  0  0  0  0  0  0  0  0  0
   -2.0100   -0.5510  -13.3270 N   0  0  0  0  0  0  0  0  0  0  0  0
   -1.1520    0.0100  -12.3110 C   0  0  0  0  0  0  0  0  0  0  0  0
   -0.6200    1.3410  -12.7260 C   0  0  0  0  0  0  0  0  0  0  0  0
    0.8580    1.5650  -12.8020 C   0  0  0  0  0  0  0  0  0  0  0  0
    0.0740    1.4670  -14.0390 C   0  0  0  0  0  0  0  0  0  0  0  0
   -4.0150    0.1940  -12.2380 N   0  0  0  0  0  0  0  0  0  0  0  0
   -5.3070    0.2720  -12.0650 N   0  0  0  0  0  0  0  0  0  0  0  0
   -4.2290    1.8870   -9.8320 C   0  0  0  0  0  0  0  0  0  0  0  0
   -1.8340    3.6146   -6.7146 H   0  0  0  0  0  0  0  0  0  0  0  0
   -0.6482    4.0049   -8.0062 H   0  0  0  0  0  0  0  0  0  0  0  0
   -2.2658    4.7859   -8.0062 H   0  0  0  0  0  0  0  0  0  0  0  0
   -4.1674    3.9915   -7.2033 H   0  0  0  0  0  0  0  0  0  0  0  0
   -6.6116    3.8545   -7.5524 H   0  0  0  0  0  0  0  0  0  0  0  0
   -7.4996    2.4425   -9.3808 H   0  0  0  0  0  0  0  0  0  0  0  0
   -8.2446    1.0070  -10.9388 H   0  0  0  0  0  0  0  0  0  0  0  0
   -6.2632   -1.7267  -14.6444 H   0  0  0  0  0  0  0  0  0  0  0  0
   -3.7570   -1.8246  -14.9063 H   0  0  0  0  0  0  0  0  0  0  0  0
   -1.5740   -0.9870  -14.1640 H   0  0  0  0  0  0  0  0  0  0  0  0
   -1.7275    0.1281  -11.3810 H   0  0  0  0  0  0  0  0  0  0  0  0
   -0.3023   -0.6717  -12.1585 H   0  0  0  0  0  0  0  0  0  0  0  0
   -1.4599    1.8448  -12.2253 H   0  0  0  0  0  0  0  0  0  0  0  0
    1.2831    2.5325  -12.4966 H   0  0  0  0  0  0  0  0  0  0  0  0
    1.7425    1.0483  -12.4012 H   0  0  0  0  0  0  0  0  0  0  0  0
   -0.0851    2.3615  -14.6591 H   0  0  0  0  0  0  0  0  0  0  0  0
    0.1334    0.8458  -14.9449 H   0  0  0  0  0  0  0  0  0  0  0  0
   -3.5420    1.3251  -10.4818 H   0  0  0  0  0  0  0  0  0  0  0  0
  1  2  1  0
  2  3  2  0
  2  4  1  0
  4  5  2  0
  5  6  1  0
  6  7  2  0
  7  8  1  0
  8  9  1  0
  9 10  2  0
 10 11  1  0
 11 12  2  0
 12 13  1  0
 13 14  2  0
 14 15  1  0
 15 16  1  0
 16 17  1  0
 17 18  1  0
 18 19  1  0
 19 20  1  0
 15 21  2  0
 21 22  1  0
  8 23  2  0
 23  4  1  0
 22  9  1  0
 22 12  1  0
 20 18  1  0
  1 24  1  0
  1 25  1  0
  1 26  1  0
  5 27  1  0
  6 28  1  0
  7 29  1  0
 10 30  1  0
 13 31  1  0
 14 32  1  0
 16 33  1  0
 17 34  1  0
 17 35  1  0
 18 36  1  0
 19 37  1  0
 19 38  1  0
 20 39  1  0
 20 40  1  0
 23 41  1  0
M  END
$$$$
