MODEL 1
REMARK VINA RESULT:    -8.999      0.000      0.000
REMARK INTER + INTRA:         -12.068
REMARK INTER:                 -11.629
REMARK INTRA:                  -0.439
REMARK UNBOUND:                -0.439
REMARK SMILES CC(=O)c1cccc(-c2cnc3ccc(NCC4CC4)nn23)c1
REMARK SMILES IDX 9 1 10 2 11 3 12 4 13 5 14 6 15 7 21 8 22 9 8 10 4 11 5 12
REMARK SMILES IDX 23 13 6 14 7 15 2 16 1 17 3 18 16 19 17 21 18 22 19 23 20 24
REMARK H PARENT 16 20
REMARK Flexibility Score: inf
ROOT
ATOM      1  C   UNL     1      -4.215   0.074 -12.652  1.00  0.00     0.093 A 
ATOM      2  C   UNL     1      -4.512  -0.856 -13.618  1.00  0.00     0.142 A 
ATOM      3  N   UNL     1      -5.843  -0.944 -13.727  1.00  0.00    -0.235 NA
ATOM      4  C   UNL     1      -6.430  -0.095 -12.857  1.00  0.00     0.154 A 
ATOM      5  C   UNL     1      -7.761   0.165 -12.607  1.00  0.00     0.053 A 
ATOM      6  C   UNL     1      -8.043   1.111 -11.633  1.00  0.00     0.052 A 
ATOM      7  C   UNL     1      -6.990   1.732 -10.976  1.00  0.00     0.147 A 
ATOM      8  N   UNL     1      -5.730   1.401 -11.301  1.00  0.00    -0.148 NA
ATOM      9  N   UNL     1      -5.414   0.518 -12.210  1.00  0.00    -0.211 N 
ENDROOT
BRANCH   1  10
ATOM     10  C   UNL     1      -2.889   0.487 -12.208  1.00  0.00     0.003 A 
ATOM     11  C   UNL     1      -0.589   1.020 -12.812  1.00  0.00     0.018 A 
ATOM     12  C   UNL     1      -0.319   1.267 -11.491  1.00  0.00     0.012 A 
ATOM     13  C   UNL     1      -1.887   0.628 -13.144  1.00  0.00     0.022 A 
ATOM     14  C   UNL     1      -1.285   1.139 -10.520  1.00  0.00     0.001 A 
ATOM     15  C   UNL     1      -2.557   0.750 -10.898  1.00  0.00     0.010 A 
BRANCH  11  16
ATOM     16  C   UNL     1       0.444   1.158 -13.833  1.00  0.00     0.159 C 
ATOM     17  C   UNL     1       1.859   1.024 -13.431  1.00  0.00     0.093 C 
ATOM     18  O   UNL     1       0.171   1.385 -15.029  1.00  0.00    -0.295 OA
ENDBRANCH  11  16
ENDBRANCH   1  10
BRANCH   7  19
ATOM     19  N   UNL     1      -7.245   2.705  -9.974  1.00  0.00    -0.368 N 
ATOM     20  H   UNL     1      -8.133   3.245  -9.999  1.00  0.00     0.162 HD
BRANCH  19  21
ATOM     21  C   UNL     1      -6.302   2.970  -8.915  1.00  0.00     0.118 C 
BRANCH  21  22
ATOM     22  C   UNL     1      -6.945   3.708  -7.788  1.00  0.00     0.008 C 
ATOM     23  C   UNL     1      -6.583   5.136  -7.526  1.00  0.00     0.006 C 
ATOM     24  C   UNL     1      -7.896   4.813  -8.097  1.00  0.00     0.006 C 
ENDBRANCH  21  22
ENDBRANCH  19  21
ENDBRANCH   7  19
TORSDOF 5
ENDMDL
MODEL 2
REMARK VINA RESULT:    -8.801      1.793      4.199
REMARK INTER + INTRA:         -11.813
REMARK INTER:                 -11.291
REMARK INTRA:                  -0.522
REMARK UNBOUND:                -0.439
REMARK SMILES CC(=O)c1cccc(-c2cnc3ccc(NCC4CC4)nn23)c1
REMARK SMILES IDX 9 1 10 2 11 3 12 4 13 5 14 6 15 7 21 8 22 9 8 10 4 11 5 12
REMARK SMILES IDX 23 13 6 14 7 15 2 16 1 17 3 18 16 19 17 21 18 22 19 23 20 24
REMARK H PARENT 16 20
REMARK Flexibility Score: inf
ROOT
ATOM      1  C   UNL     1      -2.787   2.078 -10.114  1.00  0.00     0.093 A 
ATOM      2  C   UNL     1      -2.125   2.865  -9.204  1.00  0.00     0.142 A 
ATOM      3  N   UNL     1      -3.021   3.366  -8.346  1.00  0.00    -0.235 NA
ATOM      4  C   UNL     1      -4.256   2.929  -8.668  1.00  0.00     0.154 A 
ATOM      5  C   UNL     1      -5.482   3.173  -8.083  1.00  0.00     0.053 A 
ATOM      6  C   UNL     1      -6.585   2.563  -8.662  1.00  0.00     0.052 A 
ATOM      7  C   UNL     1      -6.399   1.758  -9.777  1.00  0.00     0.147 A 
ATOM      8  N   UNL     1      -5.158   1.590 -10.262  1.00  0.00    -0.148 NA
ATOM      9  N   UNL     1      -4.089   2.141  -9.753  1.00  0.00    -0.211 N 
ENDROOT
BRANCH   1  10
ATOM     10  C   UNL     1      -2.202   1.336 -11.225  1.00  0.00     0.003 A 
ATOM     11  C   UNL     1      -0.182   0.606 -12.376  1.00  0.00     0.018 A 
ATOM     12  C   UNL     1      -0.964  -0.042 -13.298  1.00  0.00     0.012 A 
ATOM     13  C   UNL     1      -0.830   1.291 -11.347  1.00  0.00     0.022 A 
ATOM     14  C   UNL     1      -2.337  -0.025 -13.219  1.00  0.00     0.001 A 
ATOM     15  C   UNL     1      -2.933   0.666 -12.181  1.00  0.00     0.010 A 
BRANCH  11  16
ATOM     16  C   UNL     1       1.274   0.582 -12.470  1.00  0.00     0.159 C 
ATOM     17  C   UNL     1       1.911   1.063 -13.712  1.00  0.00     0.093 C 
ATOM     18  O   UNL     1       1.994   0.170 -11.538  1.00  0.00    -0.295 OA
ENDBRANCH  11  16
ENDBRANCH   1  10
BRANCH   7  19
ATOM     19  N   UNL     1      -7.507   1.119 -10.392  1.00  0.00    -0.368 N 
ATOM     20  H   UNL     1      -8.038   0.395  -9.868  1.00  0.00     0.162 HD
BRANCH  19  21
ATOM     21  C   UNL     1      -7.924   1.447 -11.734  1.00  0.00     0.118 C 
BRANCH  21  22
ATOM     22  C   UNL     1      -7.706   0.301 -12.665  1.00  0.00     0.008 C 
ATOM     23  C   UNL     1      -6.456   0.229 -13.484  1.00  0.00     0.006 C 
ATOM     24  C   UNL     1      -6.639  -0.691 -12.354  1.00  0.00     0.006 C 
ENDBRANCH  21  22
ENDBRANCH  19  21
ENDBRANCH   7  19
TORSDOF 5
ENDMDL
MODEL 3
REMARK VINA RESULT:    -8.544      1.006      1.242
REMARK INTER + INTRA:         -11.480
REMARK INTER:                 -10.923
REMARK INTRA:                  -0.557
REMARK UNBOUND:                -0.439
REMARK SMILES CC(=O)c1cccc(-c2cnc3ccc(NCC4CC4)nn23)c1
REMARK SMILES IDX 9 1 10 2 11 3 12 4 13 5 14 6 15 7 21 8 22 9 8 10 4 11 5 12
REMARK SMILES IDX 23 13 6 14 7 15 2 16 1 17 3 18 16 19 17 21 18 22 19 23 20 24
REMARK H PARENT 16 20
REMARK Flexibility Score: inf
ROOT
ATOM      1  C   UNL     1      -4.020  -0.208 -12.926  1.00  0.00     0.093 A 
ATOM      2  C   UNL     1      -4.175  -1.277 -13.774  1.00  0.00     0.142 A 
ATOM      3  N   UNL     1      -5.484  -1.505 -13.934  1.00  0.00    -0.235 NA
ATOM      4  C   UNL     1      -6.195  -0.612 -13.213  1.00  0.00     0.154 A 
ATOM      5  C   UNL     1      -7.556  -0.450 -13.063  1.00  0.00     0.053 A 
ATOM      6  C   UNL     1      -7.978   0.581 -12.237  1.00  0.00     0.052 A 
ATOM      7  C   UNL     1      -7.025   1.377 -11.619  1.00  0.00     0.147 A 
ATOM      8  N   UNL     1      -5.723   1.129 -11.837  1.00  0.00    -0.148 NA
ATOM      9  N   UNL     1      -5.278   0.172 -12.605  1.00  0.00    -0.211 N 
ENDROOT
BRANCH   1  10
ATOM     10  C   UNL     1      -2.764   0.382 -12.477  1.00  0.00     0.003 A 
ATOM     11  C   UNL     1      -0.509   1.109 -13.051  1.00  0.00     0.018 A 
ATOM     12  C   UNL     1      -0.323   1.494 -11.748  1.00  0.00     0.012 A 
ATOM     13  C   UNL     1      -1.744   0.552 -13.389  1.00  0.00     0.022 A 
ATOM     14  C   UNL     1      -1.310   1.345 -10.802  1.00  0.00     0.001 A 
ATOM     15  C   UNL     1      -2.517   0.789 -11.185  1.00  0.00     0.010 A 
BRANCH  11  16
ATOM     16  C   UNL     1       0.545   1.272 -14.046  1.00  0.00     0.159 C 
ATOM     17  C   UNL     1       1.952   1.144 -13.615  1.00  0.00     0.093 C 
ATOM     18  O   UNL     1       0.297   1.516 -15.244  1.00  0.00    -0.295 OA
ENDBRANCH  11  16
ENDBRANCH   1  10
BRANCH   7  19
ATOM     19  N   UNL     1      -7.424   2.441 -10.767  1.00  0.00    -0.368 N 
ATOM     20  H   UNL     1      -7.988   3.224 -11.156  1.00  0.00     0.162 HD
BRANCH  19  21
ATOM     21  C   UNL     1      -7.069   2.470  -9.369  1.00  0.00     0.118 C 
BRANCH  21  22
ATOM     22  C   UNL     1      -5.666   2.940  -9.176  1.00  0.00     0.008 C 
ATOM     23  C   UNL     1      -5.126   3.136  -7.794  1.00  0.00     0.006 C 
ATOM     24  C   UNL     1      -4.660   2.002  -8.602  1.00  0.00     0.006 C 
ENDBRANCH  21  22
ENDBRANCH  19  21
ENDBRANCH   7  19
TORSDOF 5
ENDMDL
MODEL 4
REMARK VINA RESULT:    -8.450      2.999      7.327
REMARK INTER + INTRA:         -11.360
REMARK INTER:                 -11.041
REMARK INTRA:                  -0.319
REMARK UNBOUND:                -0.439
REMARK SMILES CC(=O)c1cccc(-c2cnc3ccc(NCC4CC4)nn23)c1
REMARK SMILES IDX 9 1 10 2 11 3 12 4 13 5 14 6 15 7 21 8 22 9 8 10 4 11 5 12
REMARK SMILES IDX 23 13 6 14 7 15 2 16 1 17 3 18 16 19 17 21 18 22 19 23 20 24
REMARK H PARENT 16 20
REMARK Flexibility Score: inf
ROOT
ATOM      1  C   UNL     1      -5.229   1.920  -9.926  1.00  0.00     0.093 A 
ATOM      2  C   UNL     1      -5.890   2.425  -8.834  1.00  0.00     0.142 A 
ATOM      3  N   UNL     1      -4.992   2.992  -8.020  1.00  0.00    -0.235 NA
ATOM      4  C   UNL     1      -3.757   2.875  -8.549  1.00  0.00     0.154 A 
ATOM      5  C   UNL     1      -2.529   3.298  -8.083  1.00  0.00     0.053 A 
ATOM      6  C   UNL     1      -1.426   3.018  -8.877  1.00  0.00     0.052 A 
ATOM      7  C   UNL     1      -1.615   2.340 -10.072  1.00  0.00     0.147 A 
ATOM      8  N   UNL     1      -2.857   1.975 -10.428  1.00  0.00    -0.148 NA
ATOM      9  N   UNL     1      -3.926   2.215  -9.717  1.00  0.00    -0.211 N 
ENDROOT
BRANCH   1  10
ATOM     10  C   UNL     1      -5.816   1.220 -11.063  1.00  0.00     0.003 A 
ATOM     11  C   UNL     1      -7.825   0.674 -12.330  1.00  0.00     0.018 A 
ATOM     12  C   UNL     1      -7.058  -0.067 -13.191  1.00  0.00     0.012 A 
ATOM     13  C   UNL     1      -7.176   1.309 -11.270  1.00  0.00     0.022 A 
ATOM     14  C   UNL     1      -5.697  -0.186 -13.027  1.00  0.00     0.001 A 
ATOM     15  C   UNL     1      -5.099   0.462 -11.962  1.00  0.00     0.010 A 
BRANCH  11  16
ATOM     16  C   UNL     1      -9.267   0.793 -12.515  1.00  0.00     0.159 C 
ATOM     17  C   UNL     1     -10.000   1.809 -11.732  1.00  0.00     0.093 C 
ATOM     18  O   UNL     1      -9.899   0.067 -13.310  1.00  0.00    -0.295 OA
ENDBRANCH  11  16
ENDBRANCH   1  10
BRANCH   7  19
ATOM     19  N   UNL     1      -0.507   2.039 -10.907  1.00  0.00    -0.368 N 
ATOM     20  H   UNL     1       0.453   2.289 -10.595  1.00  0.00     0.162 HD
BRANCH  19  21
ATOM     21  C   UNL     1      -0.673   1.391 -12.186  1.00  0.00     0.118 C 
BRANCH  21  22
ATOM     22  C   UNL     1       0.284   1.932 -13.196  1.00  0.00     0.008 C 
ATOM     23  C   UNL     1       1.343   1.047 -13.773  1.00  0.00     0.006 C 
ATOM     24  C   UNL     1       0.201   1.449 -14.603  1.00  0.00     0.006 C 
ENDBRANCH  21  22
ENDBRANCH  19  21
ENDBRANCH   7  19
TORSDOF 5
ENDMDL
MODEL 5
REMARK VINA RESULT:    -8.391      1.629      2.475
REMARK INTER + INTRA:         -11.282
REMARK INTER:                 -10.890
REMARK INTRA:                  -0.392
REMARK UNBOUND:                -0.439
REMARK SMILES CC(=O)c1cccc(-c2cnc3ccc(NCC4CC4)nn23)c1
REMARK SMILES IDX 9 1 10 2 11 3 12 4 13 5 14 6 15 7 21 8 22 9 8 10 4 11 5 12
REMARK SMILES IDX 23 13 6 14 7 15 2 16 1 17 3 18 16 19 17 21 18 22 19 23 20 24
REMARK H PARENT 16 20
REMARK Flexibility Score: inf
ROOT
ATOM      1  C   UNL     1      -4.348  -0.016 -12.685  1.00  0.00     0.093 A 
ATOM      2  C   UNL     1      -4.649  -0.942 -13.653  1.00  0.00     0.142 A 
ATOM      3  N   UNL     1      -5.980  -1.010 -13.775  1.00  0.00    -0.235 NA
ATOM      4  C   UNL     1      -6.562  -0.150 -12.912  1.00  0.00     0.154 A 
ATOM      5  C   UNL     1      -7.892   0.131 -12.675  1.00  0.00     0.053 A 
ATOM      6  C   UNL     1      -8.168   1.083 -11.705  1.00  0.00     0.052 A 
ATOM      7  C   UNL     1      -7.112   1.688 -11.039  1.00  0.00     0.147 A 
ATOM      8  N   UNL     1      -5.854   1.337 -11.351  1.00  0.00    -0.148 NA
ATOM      9  N   UNL     1      -5.544   0.448 -12.256  1.00  0.00    -0.211 N 
ENDROOT
BRANCH   1  10
ATOM     10  C   UNL     1      -3.019   0.377 -12.229  1.00  0.00     0.003 A 
ATOM     11  C   UNL     1      -1.607   1.090 -10.374  1.00  0.00     0.018 A 
ATOM     12  C   UNL     1      -0.539   1.142 -11.233  1.00  0.00     0.012 A 
ATOM     13  C   UNL     1      -2.841   0.704 -10.901  1.00  0.00     0.022 A 
ATOM     14  C   UNL     1      -0.667   0.826 -12.565  1.00  0.00     0.001 A 
ATOM     15  C   UNL     1      -1.909   0.448 -13.041  1.00  0.00     0.010 A 
BRANCH  11  16
ATOM     16  C   UNL     1      -1.460   1.428  -8.963  1.00  0.00     0.159 C 
ATOM     17  C   UNL     1      -1.752   2.810  -8.531  1.00  0.00     0.093 C 
ATOM     18  O   UNL     1      -1.096   0.590  -8.112  1.00  0.00    -0.295 OA
ENDBRANCH  11  16
ENDBRANCH   1  10
BRANCH   7  19
ATOM     19  N   UNL     1      -7.362   2.667 -10.041  1.00  0.00    -0.368 N 
ATOM     20  H   UNL     1      -8.261   3.188 -10.049  1.00  0.00     0.162 HD
BRANCH  19  21
ATOM     21  C   UNL     1      -6.398   2.962  -9.009  1.00  0.00     0.118 C 
BRANCH  21  22
ATOM     22  C   UNL     1      -7.026   3.707  -7.878  1.00  0.00     0.008 C 
ATOM     23  C   UNL     1      -6.645   5.131  -7.617  1.00  0.00     0.006 C 
ATOM     24  C   UNL     1      -7.965   4.824  -8.180  1.00  0.00     0.006 C 
ENDBRANCH  21  22
ENDBRANCH  19  21
ENDBRANCH   7  19
TORSDOF 5
ENDMDL
MODEL 6
REMARK VINA RESULT:    -8.253      2.737      5.248
REMARK INTER + INTRA:         -11.104
REMARK INTER:                 -10.717
REMARK INTRA:                  -0.388
REMARK UNBOUND:                -0.439
REMARK SMILES CC(=O)c1cccc(-c2cnc3ccc(NCC4CC4)nn23)c1
REMARK SMILES IDX 9 1 10 2 11 3 12 4 13 5 14 6 15 7 21 8 22 9 8 10 4 11 5 12
REMARK SMILES IDX 23 13 6 14 7 15 2 16 1 17 3 18 16 19 17 21 18 22 19 23 20 24
REMARK H PARENT 16 20
REMARK Flexibility Score: inf
ROOT
ATOM      1  C   UNL     1      -2.983   1.135 -11.718  1.00  0.00     0.093 A 
ATOM      2  C   UNL     1      -1.687   1.294 -12.140  1.00  0.00     0.142 A 
ATOM      3  N   UNL     1      -1.033   2.030 -11.233  1.00  0.00    -0.235 NA
ATOM      4  C   UNL     1      -1.866   2.358 -10.225  1.00  0.00     0.154 A 
ATOM      5  C   UNL     1      -1.652   3.096  -9.079  1.00  0.00     0.053 A 
ATOM      6  C   UNL     1      -2.733   3.256  -8.225  1.00  0.00     0.052 A 
ATOM      7  C   UNL     1      -3.947   2.678  -8.564  1.00  0.00     0.147 A 
ATOM      8  N   UNL     1      -4.043   1.979  -9.707  1.00  0.00    -0.148 NA
ATOM      9  N   UNL     1      -3.055   1.800 -10.542  1.00  0.00    -0.211 N 
ENDROOT
BRANCH   1  10
ATOM     10  C   UNL     1      -4.046   0.403 -12.398  1.00  0.00     0.003 A 
ATOM     11  C   UNL     1      -6.439   0.088 -12.735  1.00  0.00     0.018 A 
ATOM     12  C   UNL     1      -6.162  -0.916 -13.628  1.00  0.00     0.012 A 
ATOM     13  C   UNL     1      -5.358   0.732 -12.132  1.00  0.00     0.022 A 
ATOM     14  C   UNL     1      -4.870  -1.281 -13.926  1.00  0.00     0.001 A 
ATOM     15  C   UNL     1      -3.831  -0.612 -13.303  1.00  0.00     0.010 A 
BRANCH  11  16
ATOM     16  C   UNL     1      -7.814   0.466 -12.427  1.00  0.00     0.159 C 
ATOM     17  C   UNL     1      -8.052   1.454 -11.355  1.00  0.00     0.093 C 
ATOM     18  O   UNL     1      -8.790  -0.015 -13.037  1.00  0.00    -0.295 OA
ENDBRANCH  11  16
ENDBRANCH   1  10
BRANCH   7  19
ATOM     19  N   UNL     1      -5.073   2.823  -7.711  1.00  0.00    -0.368 N 
ATOM     20  H   UNL     1      -4.987   2.582  -6.703  1.00  0.00     0.162 HD
BRANCH  19  21
ATOM     21  C   UNL     1      -6.343   3.299  -8.203  1.00  0.00     0.118 C 
BRANCH  21  22
ATOM     22  C   UNL     1      -6.639   4.673  -7.699  1.00  0.00     0.008 C 
ATOM     23  C   UNL     1      -8.039   5.200  -7.742  1.00  0.00     0.006 C 
ATOM     24  C   UNL     1      -7.442   4.829  -6.453  1.00  0.00     0.006 C 
ENDBRANCH  21  22
ENDBRANCH  19  21
ENDBRANCH   7  19
TORSDOF 5
ENDMDL
MODEL 7
REMARK VINA RESULT:    -8.212      2.391      6.387
REMARK INTER + INTRA:         -11.051
REMARK INTER:                 -10.608
REMARK INTRA:                  -0.443
REMARK UNBOUND:                -0.439
REMARK SMILES CC(=O)c1cccc(-c2cnc3ccc(NCC4CC4)nn23)c1
REMARK SMILES IDX 9 1 10 2 11 3 12 4 13 5 14 6 15 7 21 8 22 9 8 10 4 11 5 12
REMARK SMILES IDX 23 13 6 14 7 15 2 16 1 17 3 18 16 19 17 21 18 22 19 23 20 24
REMARK H PARENT 16 20
REMARK Flexibility Score: inf
ROOT
ATOM      1  C   UNL     1      -5.370   1.982  -9.960  1.00  0.00     0.093 A 
ATOM      2  C   UNL     1      -6.126   2.610  -9.001  1.00  0.00     0.142 A 
ATOM      3  N   UNL     1      -5.300   3.208  -8.135  1.00  0.00    -0.235 NA
ATOM      4  C   UNL     1      -4.019   2.990  -8.499  1.00  0.00     0.154 A 
ATOM      5  C   UNL     1      -2.834   3.399  -7.924  1.00  0.00     0.053 A 
ATOM      6  C   UNL     1      -1.662   3.002  -8.553  1.00  0.00     0.052 A 
ATOM      7  C   UNL     1      -1.746   2.229  -9.702  1.00  0.00     0.147 A 
ATOM      8  N   UNL     1      -2.956   1.888 -10.174  1.00  0.00    -0.148 NA
ATOM      9  N   UNL     1      -4.086   2.237  -9.619  1.00  0.00    -0.211 N 
ENDROOT
BRANCH   1  10
ATOM     10  C   UNL     1      -5.857   1.210 -11.098  1.00  0.00     0.003 A 
ATOM     11  C   UNL     1      -5.348  -0.364 -12.887  1.00  0.00     0.018 A 
ATOM     12  C   UNL     1      -6.660  -0.310 -13.282  1.00  0.00     0.012 A 
ATOM     13  C   UNL     1      -4.972   0.410 -11.788  1.00  0.00     0.022 A 
ATOM     14  C   UNL     1      -7.580   0.474 -12.626  1.00  0.00     0.001 A 
ATOM     15  C   UNL     1      -7.161   1.222 -11.542  1.00  0.00     0.010 A 
BRANCH  11  16
ATOM     16  C   UNL     1      -4.380  -1.199 -13.591  1.00  0.00     0.159 C 
ATOM     17  C   UNL     1      -2.975  -0.749 -13.660  1.00  0.00     0.093 C 
ATOM     18  O   UNL     1      -4.701  -2.276 -14.133  1.00  0.00    -0.295 OA
ENDBRANCH  11  16
ENDBRANCH   1  10
BRANCH   7  19
ATOM     19  N   UNL     1      -0.566   1.807 -10.369  1.00  0.00    -0.368 N 
ATOM     20  H   UNL     1       0.359   1.966  -9.922  1.00  0.00     0.162 HD
BRANCH  19  21
ATOM     21  C   UNL     1      -0.612   1.159 -11.657  1.00  0.00     0.118 C 
BRANCH  21  22
ATOM     22  C   UNL     1       0.301   1.826 -12.632  1.00  0.00     0.008 C 
ATOM     23  C   UNL     1       1.373   1.036 -13.314  1.00  0.00     0.006 C 
ATOM     24  C   UNL     1       0.198   1.475 -14.076  1.00  0.00     0.006 C 
ENDBRANCH  21  22
ENDBRANCH  19  21
ENDBRANCH   7  19
TORSDOF 5
ENDMDL
MODEL 8
REMARK VINA RESULT:    -8.097      3.140      4.845
REMARK INTER + INTRA:         -10.904
REMARK INTER:                 -10.280
REMARK INTRA:                  -0.623
REMARK UNBOUND:                -0.439
REMARK SMILES CC(=O)c1cccc(-c2cnc3ccc(NCC4CC4)nn23)c1
REMARK SMILES IDX 9 1 10 2 11 3 12 4 13 5 14 6 15 7 21 8 22 9 8 10 4 11 5 12
REMARK SMILES IDX 23 13 6 14 7 15 2 16 1 17 3 18 16 19 17 21 18 22 19 23 20 24
REMARK H PARENT 16 20
REMARK Flexibility Score: inf
ROOT
ATOM      1  C   UNL     1      -1.810   1.711 -11.161  1.00  0.00     0.093 A 
ATOM      2  C   UNL     1      -0.761   1.215 -11.894  1.00  0.00     0.142 A 
ATOM      3  N   UNL     1      -1.248   0.372 -12.813  1.00  0.00    -0.235 NA
ATOM      4  C   UNL     1      -2.590   0.301 -12.703  1.00  0.00     0.154 A 
ATOM      5  C   UNL     1      -3.519  -0.425 -13.419  1.00  0.00     0.053 A 
ATOM      6  C   UNL     1      -4.849  -0.277 -13.054  1.00  0.00     0.052 A 
ATOM      7  C   UNL     1      -5.165   0.576 -12.006  1.00  0.00     0.147 A 
ATOM      8  N   UNL     1      -4.178   1.235 -11.377  1.00  0.00    -0.148 NA
ATOM      9  N   UNL     1      -2.913   1.129 -11.685  1.00  0.00    -0.211 N 
ENDROOT
BRANCH   1  10
ATOM     10  C   UNL     1      -1.739   2.662 -10.056  1.00  0.00     0.003 A 
ATOM     11  C   UNL     1      -1.235   4.930  -9.322  1.00  0.00     0.018 A 
ATOM     12  C   UNL     1      -1.561   4.568  -8.041  1.00  0.00     0.012 A 
ATOM     13  C   UNL     1      -1.332   3.953 -10.314  1.00  0.00     0.022 A 
ATOM     14  C   UNL     1      -1.972   3.291  -7.733  1.00  0.00     0.001 A 
ATOM     15  C   UNL     1      -2.054   2.358  -8.751  1.00  0.00     0.010 A 
BRANCH  11  16
ATOM     16  C   UNL     1      -0.800   6.287  -9.636  1.00  0.00     0.159 C 
ATOM     17  C   UNL     1       0.517   6.740  -9.145  1.00  0.00     0.093 C 
ATOM     18  O   UNL     1      -1.502   7.073 -10.305  1.00  0.00    -0.295 OA
ENDBRANCH  11  16
ENDBRANCH   1  10
BRANCH   7  19
ATOM     19  N   UNL     1      -6.517   0.750 -11.607  1.00  0.00    -0.368 N 
ATOM     20  H   UNL     1      -6.759   1.502 -10.931  1.00  0.00     0.162 HD
BRANCH  19  21
ATOM     21  C   UNL     1      -7.573  -0.091 -12.116  1.00  0.00     0.118 C 
BRANCH  21  22
ATOM     22  C   UNL     1      -8.604   0.710 -12.839  1.00  0.00     0.008 C 
ATOM     23  C   UNL     1     -10.000   0.188 -12.972  1.00  0.00     0.006 C 
ATOM     24  C   UNL     1      -9.727   1.311 -12.067  1.00  0.00     0.006 C 
ENDBRANCH  21  22
ENDBRANCH  19  21
ENDBRANCH   7  19
TORSDOF 5
ENDMDL
MODEL 9
REMARK VINA RESULT:    -8.042      2.186      5.654
REMARK INTER + INTRA:         -10.832
REMARK INTER:                 -10.434
REMARK INTRA:                  -0.398
REMARK UNBOUND:                -0.439
REMARK SMILES CC(=O)c1cccc(-c2cnc3ccc(NCC4CC4)nn23)c1
REMARK SMILES IDX 9 1 10 2 11 3 12 4 13 5 14 6 15 7 21 8 22 9 8 10 4 11 5 12
REMARK SMILES IDX 23 13 6 14 7 15 2 16 1 17 3 18 16 19 17 21 18 22 19 23 20 24
REMARK H PARENT 16 20
REMARK Flexibility Score: inf
ROOT
ATOM      1  C   UNL     1      -6.052   0.935 -11.152  1.00  0.00     0.093 A 
ATOM      2  C   UNL     1      -7.354   0.640 -11.470  1.00  0.00     0.142 A 
ATOM      3  N   UNL     1      -7.357  -0.170 -12.536  1.00  0.00    -0.235 NA
ATOM      4  C   UNL     1      -6.089  -0.415 -12.927  1.00  0.00     0.154 A 
ATOM      5  C   UNL     1      -5.595  -1.181 -13.962  1.00  0.00     0.053 A 
ATOM      6  C   UNL     1      -4.216  -1.231 -14.102  1.00  0.00     0.052 A 
ATOM      7  C   UNL     1      -3.425  -0.520 -13.211  1.00  0.00     0.147 A 
ATOM      8  N   UNL     1      -4.015   0.194 -12.238  1.00  0.00    -0.148 NA
ATOM      9  N   UNL     1      -5.307   0.272 -12.065  1.00  0.00    -0.211 N 
ENDROOT
BRANCH   1  10
ATOM     10  C   UNL     1      -5.584   1.783 -10.061  1.00  0.00     0.003 A 
ATOM     11  C   UNL     1      -3.689   2.673  -8.813  1.00  0.00     0.018 A 
ATOM     12  C   UNL     1      -4.564   3.364  -8.015  1.00  0.00     0.012 A 
ATOM     13  C   UNL     1      -4.229   1.887  -9.832  1.00  0.00     0.022 A 
ATOM     14  C   UNL     1      -5.925   3.293  -8.203  1.00  0.00     0.001 A 
ATOM     15  C   UNL     1      -6.412   2.501  -9.227  1.00  0.00     0.010 A 
BRANCH  11  16
ATOM     16  C   UNL     1      -2.248   2.757  -8.603  1.00  0.00     0.159 C 
ATOM     17  C   UNL     1      -1.715   3.861  -7.780  1.00  0.00     0.093 C 
ATOM     18  O   UNL     1      -1.455   1.928  -9.095  1.00  0.00    -0.295 OA
ENDBRANCH  11  16
ENDBRANCH   1  10
BRANCH   7  19
ATOM     19  N   UNL     1      -2.010  -0.551 -13.327  1.00  0.00    -0.368 N 
ATOM     20  H   UNL     1      -1.574  -0.987 -14.164  1.00  0.00     0.162 HD
BRANCH  19  21
ATOM     21  C   UNL     1      -1.152   0.010 -12.311  1.00  0.00     0.118 C 
BRANCH  21  22
ATOM     22  C   UNL     1      -0.620   1.341 -12.726  1.00  0.00     0.008 C 
ATOM     23  C   UNL     1       0.858   1.565 -12.802  1.00  0.00     0.006 C 
ATOM     24  C   UNL     1       0.074   1.467 -14.039  1.00  0.00     0.006 C 
ENDBRANCH  21  22
ENDBRANCH  19  21
ENDBRANCH   7  19
TORSDOF 5
ENDMDL
