
     RDKit          3D

 45 47  0  0  0  0  0  0  0  0999 V2000
    1.8370    1.4790  -11.4780 N   0  0  0  0  0  0  0  0  0  0  0  0
    0.4710    1.2020  -11.1250 C   0  0  0  0  0  0  0  0  0  0  0  0
    0.1610    0.0610  -10.7440 O   0  0  0  0  0  0  0  0  0  0  0  0
   -0.5080    2.2170  -11.2100 N   0  0  0  0  0  0  0  0  0  0  0  0
   -1.9130    2.0630  -10.8840 C   0  0  0  0  0  0  0  0  0  0  0  0
   -2.7640    1.4000  -11.6750 C   0  0  0  0  0  0  0  0  0  0  0  0
   -4.0780    1.3170  -11.2650 C   0  0  0  0  0  0  0  0  0  0  0  0
   -5.2340    0.6560  -11.9220 C   0  0  0  0  0  0  0  0  0  0  0  0
   -5.0050   -0.4250  -12.6970 C   0  0  0  0  0  0  0  0  0  0  0  0
   -6.0990   -1.0390  -13.3110 C   0  0  0  0  0  0  0  0  0  0  0  0
   -7.3630   -0.5320  -13.1130 C   0  0  0  0  0  0  0  0  0  0  0  0
   -7.5850    0.5810  -12.3140 C   0  0  0  0  0  0  0  0  0  0  0  0
   -8.8260    1.0730  -12.1250 F   0  0  0  0  0  0  0  0  0  0  0  0
   -6.5110    1.1800  -11.7140 C   0  0  0  0  0  0  0  0  0  0  0  0
   -4.0720    2.1960   -9.7410 S   0  0  0  0  0  0  0  0  0  0  0  0
   -2.3840    2.6100   -9.7380 C   0  0  0  0  0  0  0  0  0  0  0  0
   -1.7340    3.3910   -8.6580 C   0  0  0  0  0  0  0  0  0  0  0  0
   -1.3820    2.9110   -7.5950 O   0  0  0  0  0  0  0  0  0  0  0  0
   -1.4880    4.7890   -8.8400 N   0  0  0  0  0  0  0  0  0  0  0  0
   -0.8630    5.6080   -7.8390 C   0  0  0  0  0  0  0  0  0  0  0  0
    0.4070    6.2670   -8.3290 C   0  0  0  0  0  0  0  0  0  0  0  0
    0.9090    7.1530   -7.2000 C   0  0  0  0  0  0  0  0  0  0  0  0
    1.1750    6.2770   -6.0210 C   0  0  0  0  0  0  0  0  0  0  0  0
    0.7510    4.9200   -6.1930 N   0  0  0  0  0  4  0  0  0  0  0  0
   -0.6600    4.8840   -6.5330 C   0  0  0  0  0  0  0  0  0  0  0  0
    2.0310    1.9880  -12.3360 H   0  0  0  0  0  0  0  0  0  0  0  0
    2.5720    1.1560  -10.8550 H   0  0  0  0  0  0  0  0  0  0  0  0
   -0.1640    3.1740  -11.5470 H   0  0  0  0  0  0  0  0  0  0  0  0
   -2.4287    0.9390  -12.6158 H   0  0  0  0  0  0  0  0  0  0  0  0
   -3.9853   -0.8116  -12.8410 H   0  0  0  0  0  0  0  0  0  0  0  0
   -5.9511   -1.9227  -13.9491 H   0  0  0  0  0  0  0  0  0  0  0  0
   -8.2192   -1.0213  -13.6004 H   0  0  0  0  0  0  0  0  0  0  0  0
   -6.6523    2.0642  -11.0751 H   0  0  0  0  0  0  0  0  0  0  0  0
   -1.7890    5.2020   -9.7500 H   0  0  0  0  0  0  0  0  0  0  0  0
   -1.5758    6.4206   -7.6352 H   0  0  0  0  0  0  0  0  0  0  0  0
    1.1596    5.5029   -8.5734 H   0  0  0  0  0  0  0  0  0  0  0  0
    0.2189    6.8567   -9.2383 H   0  0  0  0  0  0  0  0  0  0  0  0
    1.8353    7.6612   -7.5060 H   0  0  0  0  0  0  0  0  0  0  0  0
    0.1611    7.9198   -6.9498 H   0  0  0  0  0  0  0  0  0  0  0  0
    2.2577    6.2786   -5.8268 H   0  0  0  0  0  0  0  0  0  0  0  0
    0.5923    6.6875   -5.1831 H   0  0  0  0  0  0  0  0  0  0  0  0
    1.3390    4.3630   -6.8470 H   0  0  0  0  0  0  0  0  0  0  0  0
    0.8500    4.4500   -5.2440 H   0  0  0  0  0  0  0  0  0  0  0  0
   -0.9894    3.8394   -6.6342 H   0  0  0  0  0  0  0  0  0  0  0  0
   -1.2481    5.3701   -5.7406 H   0  0  0  0  0  0  0  0  0  0  0  0
  1  2  1  0
  2  3  2  0
  2  4  1  0
  4  5  1  0
  5  6  1  0
  6  7  2  0
  7  8  1  0
  8  9  2  0
  9 10  1  0
 10 11  2  0
 11 12  1  0
 12 13  1  0
 12 14  2  0
  7 15  1  0
 15 16  1  0
 16 17  1  0
 17 18  2  0
 17 19  1  0
 19 20  1  0
 20 21  1  0
 21 22  1  0
 22 23  1  0
 23 24  1  0
 24 25  1  0
 16  5  2  0
 25 20  1  0
 14  8  1  0
  1 26  1  0
  1 27  1  0
  4 28  1  0
  6 29  1  0
  9 30  1  0
 10 31  1  0
 11 32  1  0
 14 33  1  0
 19 34  1  0
 20 35  1  0
 21 36  1  0
 21 37  1  0
 22 38  1  0
 22 39  1  0
 23 40  1  0
 23 41  1  0
 24 42  1  0
 24 43  1  0
 25 44  1  0
 25 45  1  0
M  CHG  1  24   1
M  END
