
     RDKit          3D

 38 41  0  0  0  0  0  0  0  0999 V2000
   -9.4940    6.7040   -4.4700 O   0  0  0  0  0  1  0  0  0  0  0  0
   -8.7840    5.9320   -5.4050 C   0  0  0  0  0  0  0  0  0  0  0  0
   -8.7280    6.2870   -6.7360 C   0  0  0  0  0  0  0  0  0  0  0  0
   -8.0210    5.5090   -7.6390 C   0  0  0  0  0  0  0  0  0  0  0  0
   -7.3540    4.3670   -7.2560 C   0  0  0  0  0  0  0  0  0  0  0  0
   -6.6160    3.5680   -8.2390 C   0  0  0  0  0  0  0  0  0  0  0  0
   -5.3000    3.3130   -8.1880 N   0  0  0  0  0  0  0  0  0  0  0  0
   -4.9630    2.5480   -9.2530 C   0  0  0  0  0  0  0  0  0  0  0  0
   -3.6310    2.0720   -9.5380 C   0  0  0  0  0  0  0  0  0  0  0  0
   -3.2280    0.7720   -9.2670 C   0  0  0  0  0  0  0  0  0  0  0  0
   -1.9680    0.3250   -9.5380 C   0  0  0  0  0  0  0  0  0  0  0  0
   -1.0780    1.2110  -10.1010 C   0  0  0  0  0  0  0  0  0  0  0  0
    0.1860    0.7640  -10.3720 F   0  0  0  0  0  0  0  0  0  0  0  0
   -1.4170    2.5130  -10.3920 C   0  0  0  0  0  0  0  0  0  0  0  0
   -2.7080    2.9250  -10.1010 C   0  0  0  0  0  0  0  0  0  0  0  0
   -6.1040    2.3250   -9.9820 C   0  0  0  0  0  0  0  0  0  0  0  0
   -6.1440    1.5380  -11.2080 C   0  0  0  0  0  0  0  0  0  0  0  0
   -5.4600    1.9060  -12.3530 C   0  0  0  0  0  0  0  0  0  0  0  0
   -5.5430    1.1090  -13.4870 C   0  0  0  0  0  0  0  0  0  0  0  0
   -6.2750   -0.0250  -13.5170 N   0  0  0  0  0  0  0  0  0  0  0  0
   -6.9520   -0.4070  -12.4180 C   0  0  0  0  0  0  0  0  0  0  0  0
   -6.8810    0.3710  -11.2840 C   0  0  0  0  0  0  0  0  0  0  0  0
   -7.0930    2.9640   -9.3310 N   0  0  0  0  0  0  0  0  0  0  0  0
   -7.4110    4.0160   -5.9290 C   0  0  0  0  0  0  0  0  0  0  0  0
   -8.1160    4.7880   -5.0230 C   0  0  0  0  0  0  0  0  0  0  0  0
   -9.2472    7.1925   -7.0830 H   0  0  0  0  0  0  0  0  0  0  0  0
   -7.9918    5.8136   -8.6956 H   0  0  0  0  0  0  0  0  0  0  0  0
   -3.9514    0.0762   -8.8170 H   0  0  0  0  0  0  0  0  0  0  0  0
   -1.6727   -0.7106   -9.3137 H   0  0  0  0  0  0  0  0  0  0  0  0
   -0.6876    3.2035  -10.8406 H   0  0  0  0  0  0  0  0  0  0  0  0
   -3.0031    3.9606  -10.3257 H   0  0  0  0  0  0  0  0  0  0  0  0
   -4.8543    2.8241  -12.3649 H   0  0  0  0  0  0  0  0  0  0  0  0
   -4.9941    1.4116  -14.3909 H   0  0  0  0  0  0  0  0  0  0  0  0
   -7.5536   -1.3279  -12.4257 H   0  0  0  0  0  0  0  0  0  0  0  0
   -7.4392    0.0473  -10.3932 H   0  0  0  0  0  0  0  0  0  0  0  0
   -8.0940    2.9720   -9.6580 H   0  0  0  0  0  0  0  0  0  0  0  0
   -6.8902    3.1110   -5.5830 H   0  0  0  0  0  0  0  0  0  0  0  0
   -8.1444    4.4802   -3.9673 H   0  0  0  0  0  0  0  0  0  0  0  0
  1  2  1  0
  2  3  2  0
  3  4  1  0
  4  5  2  0
  5  6  1  0
  6  7  2  0
  7  8  1  0
  8  9  1  0
  9 10  2  0
 10 11  1  0
 11 12  2  0
 12 13  1  0
 12 14  1  0
 14 15  2  0
  8 16  2  0
 16 17  1  0
 17 18  2  0
 18 19  1  0
 19 20  2  0
 20 21  1  0
 21 22  2  0
 16 23  1  0
  5 24  1  0
 24 25  2  0
 25  2  1  0
 23  6  1  0
 15  9  1  0
 22 17  1  0
  3 26  1  0
  4 27  1  0
 10 28  1  0
 11 29  1  0
 14 30  1  0
 15 31  1  0
 18 32  1  0
 19 33  1  0
 21 34  1  0
 22 35  1  0
 23 36  1  0
 24 37  1  0
 25 38  1  0
M  CHG  1   1  -1
M  END
