
     RDKit          3D

 45 48  0  0  0  0  0  0  0  0999 V2000
   -0.9600    7.6310   -7.4820 O   0  0  0  0  0  0  0  0  0  0  0  0
   -0.3230    6.5900   -7.3380 C   0  0  0  0  0  0  0  0  0  0  0  0
   -0.8890    5.4880   -8.0830 C   0  0  0  0  0  0  0  0  0  0  0  0
   -1.3510    4.3630   -7.4200 C   0  0  0  0  0  0  0  0  0  0  0  0
   -1.8930    3.2940   -8.0650 C   0  0  0  0  0  0  0  0  0  0  0  0
   -2.0070    3.2860   -9.4330 C   0  0  0  0  0  0  0  0  0  0  0  0
   -2.6100    2.0980  -10.1070 C   0  0  0  0  0  0  0  0  0  0  0  0
   -2.3920    1.8950  -11.3620 C   0  0  0  0  0  0  0  0  0  0  0  0
   -2.8690    0.8210  -12.2100 C   0  0  0  0  0  0  0  0  0  0  0  0
   -2.0550    0.0390  -13.0080 N   0  0  0  0  0  2  0  0  0  0  0  0
   -2.7600   -0.8420  -13.6560 N   0  0  0  0  0  0  0  0  0  0  0  0
   -4.0660   -0.7260  -13.3550 C   0  0  0  0  0  0  0  0  0  0  0  0
   -5.1940   -1.4140  -13.7720 C   0  0  0  0  0  0  0  0  0  0  0  0
   -6.4280   -1.0660  -13.2830 C   0  0  0  0  0  0  0  0  0  0  0  0
   -6.5320   -0.0490  -12.3920 C   0  0  0  0  0  0  0  0  0  0  0  0
   -5.3880    0.6300  -11.9860 C   0  0  0  0  0  0  0  0  0  0  0  0
   -4.1230    0.3320  -12.4370 C   0  0  0  0  0  0  0  0  0  0  0  0
   -1.5660    4.3720  -10.1300 C   0  0  0  0  0  0  0  0  0  0  0  0
   -1.0280    5.4250   -9.4520 C   0  0  0  0  0  0  0  0  0  0  0  0
    0.6110    7.0870   -6.5140 N   0  0  0  0  0  4  0  0  0  0  0  0
    1.7250    6.2430   -6.2810 C   0  0  0  0  0  0  0  0  0  0  0  0
    1.8010    5.5640   -4.9380 C   0  0  0  0  0  0  0  0  0  0  0  0
    1.9860    6.5170   -3.8470 N   0  0  0  0  0  0  0  0  0  0  0  0
    1.3380    7.7540   -4.3210 C   0  0  0  0  0  0  0  0  0  0  0  0
    0.1350    7.3080   -5.0750 C   0  0  0  0  0  0  0  0  0  0  0  0
   -1.2765    4.3322   -6.3230 H   0  0  0  0  0  0  0  0  0  0  0  0
   -2.2432    2.4279   -7.4843 H   0  0  0  0  0  0  0  0  0  0  0  0
   -3.2378    1.3985   -9.5355 H   0  0  0  0  0  0  0  0  0  0  0  0
   -1.7547    2.6418  -11.8581 H   0  0  0  0  0  0  0  0  0  0  0  0
   -5.1005   -2.2383  -14.4943 H   0  0  0  0  0  0  0  0  0  0  0  0
   -7.3268   -1.6084  -13.6115 H   0  0  0  0  0  0  0  0  0  0  0  0
   -7.5160    0.2375  -11.9924 H   0  0  0  0  0  0  0  0  0  0  0  0
   -5.5012    1.4517  -11.2635 H   0  0  0  0  0  0  0  0  0  0  0  0
   -1.6436    4.3979  -11.2270 H   0  0  0  0  0  0  0  0  0  0  0  0
   -0.6797    6.2866  -10.0405 H   0  0  0  0  0  0  0  0  0  0  0  0
    0.7380    8.0540   -6.6240 H   0  0  0  0  0  0  0  0  0  0  0  0
    1.7118    5.4565   -7.0500 H   0  0  0  0  0  0  0  0  0  0  0  0
    2.5995    6.9095   -6.3135 H   0  0  0  0  0  0  0  0  0  0  0  0
    0.8667    5.0087   -4.7685 H   0  0  0  0  0  0  0  0  0  0  0  0
    2.6708    4.8908   -4.9491 H   0  0  0  0  0  0  0  0  0  0  0  0
    1.4170    6.2330   -2.9980 H   0  0  0  0  0  0  0  0  0  0  0  0
    1.0457    8.3857   -3.4692 H   0  0  0  0  0  0  0  0  0  0  0  0
    2.0135    8.3545   -4.9480 H   0  0  0  0  0  0  0  0  0  0  0  0
   -0.2581    6.3716   -4.6523 H   0  0  0  0  0  0  0  0  0  0  0  0
   -0.6763    8.0490   -5.0233 H   0  0  0  0  0  0  0  0  0  0  0  0
  1  2  2  0
  2  3  1  0
  3  4  2  0
  4  5  1  0
  5  6  2  0
  6  7  1  0
  7  8  2  3
  8  9  1  0
  9 10  1  0
 10 11  1  0
 11 12  2  0
 12 13  1  0
 13 14  2  0
 14 15  1  0
 15 16  2  0
 16 17  1  0
  6 18  1  0
 18 19  2  0
  2 20  1  0
 20 21  1  0
 21 22  1  0
 22 23  1  0
 23 24  1  0
 24 25  1  0
 19  3  1  0
 25 20  1  0
 17  9  2  0
 17 12  1  0
  4 26  1  0
  5 27  1  0
  7 28  1  0
  8 29  1  0
 13 30  1  0
 14 31  1  0
 15 32  1  0
 16 33  1  0
 18 34  1  0
 19 35  1  0
 20 36  1  0
 21 37  1  0
 21 38  1  0
 22 39  1  0
 22 40  1  0
 23 41  1  0
 24 42  1  0
 24 43  1  0
 25 44  1  0
 25 45  1  0
M  CHG  2  10  -1  20   1
M  END
