obj01
  PyMOL3.1          3D                             0

 25 28  0  0  0  0  0  0  0  0999 V2000
   -1.7888    1.4800   -8.5190 C   0  0  0  0  0  0  0  0  0  0  0  0
   -0.3530    1.0323  -13.3608 C   0  0  0  0  0  0  0  0  0  0  0  0
   -0.1130    1.3941  -12.0435 C   0  0  0  0  0  0  0  0  0  0  0  0
   -1.5880    0.4914  -13.7125 C   0  0  0  0  0  0  0  0  0  0  0  0
   -7.7578    0.7857  -12.9480 C   0  0  0  0  0  0  0  0  0  0  0  0
   -7.3322   -0.3507  -13.6121 C   0  0  0  0  0  0  0  0  0  0  0  0
   -3.9449   -1.3674  -13.9207 C   0  0  0  0  0  0  0  0  0  0  0  0
   -2.3363    0.6955  -11.4416 C   0  0  0  0  0  0  0  0  0  0  0  0
   -6.3368    5.4661   -9.2771 C   0  0  0  0  0  0  0  0  0  0  0  0
   -5.0674    3.4940   -8.6985 C   0  0  0  0  0  0  0  0  0  0  0  0
   -6.6021    4.8131  -10.6315 C   0  0  0  0  0  0  0  0  0  0  0  0
   -5.6001    2.6199   -9.8411 C   0  0  0  0  0  0  0  0  0  0  0  0
   -0.7638    1.6550   -9.6330 C   0  0  0  0  0  0  0  0  0  0  0  0
   -1.1000    1.2324  -11.0790 C   0  0  0  0  0  0  0  0  0  0  0  0
   -2.5916    0.3246  -12.7628 C   0  0  0  0  0  0  0  0  0  0  0  0
   -6.8046    1.5987  -12.3375 C   0  0  0  0  0  0  0  0  0  0  0  0
   -3.8049   -0.2467  -13.2021 C   0  0  0  0  0  0  0  0  0  0  0  0
   -5.9671   -0.5983  -13.6514 C   0  0  0  0  0  0  0  0  0  0  0  0
   -6.8243    3.2997  -10.4540 C   0  0  0  0  0  0  0  0  0  0  0  0
   -5.2438   -1.5832  -14.1914 N   0  0  0  0  0  0  0  0  0  0  0  0
   -5.5016    1.2944  -12.4210 N   0  0  0  0  0  0  0  0  0  0  0  0
   -7.2338    2.7173  -11.7389 N   0  0  0  0  0  0  0  0  0  0  0  0
   -5.0898    0.2861  -13.0022 N   0  0  0  0  0  0  0  0  0  0  0  0
    0.3511    2.1296   -9.3832 O   0  0  0  0  0  0  0  0  0  0  0  0
   -6.0447    4.4608   -8.2787 O   0  0  0  0  0  0  0  0  0  0  0  0
  1 13  1  0  0  0  0
  2  3  4  0  0  0  0
  2  4  4  0  0  0  0
  3 14  4  0  0  0  0
  4 15  4  0  0  0  0
  5  6  4  0  0  0  0
  5 16  4  0  0  0  0
  6 18  4  0  0  0  0
  7 17  4  0  0  0  0
  7 20  4  0  0  0  0
  8 14  4  0  0  0  0
  8 15  4  0  0  0  0
  9 11  1  0  0  0  0
  9 25  1  0  0  0  0
 10 12  1  0  0  0  0
 10 25  1  0  0  0  0
 11 19  1  0  0  0  0
 12 19  1  0  0  0  0
 13 14  1  0  0  0  0
 15 17  1  0  0  0  0
 17 23  4  0  0  0  0
 18 23  4  0  0  0  0
 18 20  4  0  0  0  0
 16 21  4  0  0  0  0
 21 23  4  0  0  0  0
 16 22  1  0  0  0  0
 19 22  1  0  0  0  0
 13 24  2  0  0  0  0
M  END
$$$$
