obj01
  PyMOL3.1          3D                             0

 31 36  0  0  0  0  0  0  0  0999 V2000
  -12.5009    2.1965  -11.9161 N   0  0  0  0  0  0  0  0  0  0  0  0
  -11.0906    1.8989  -12.1140 C   0  0  0  0  0  0  0  0  0  0  0  0
  -10.6449    1.2781  -13.2769 C   0  0  0  0  0  0  0  0  0  0  0  0
   -9.2855    0.9903  -13.4462 C   0  0  0  0  0  0  0  0  0  0  0  0
   -8.3706    1.3341  -12.4369 C   0  0  0  0  0  0  0  0  0  0  0  0
   -6.8444    1.0139  -12.5785 C   0  0  0  0  0  0  0  0  0  0  0  0
   -6.4448   -0.1848  -13.1986 C   0  0  0  0  0  0  0  0  0  0  0  0
   -5.0332   -0.4383  -13.2841 C   0  0  0  0  0  0  0  0  0  0  0  0
   -4.3334   -1.4889  -13.8256 O   0  0  0  0  0  0  0  0  0  0  0  0
   -3.0128   -1.3028  -13.6775 C   0  0  0  0  0  0  0  0  0  0  0  0
   -2.8273   -0.0921  -13.0183 C   0  0  0  0  0  0  0  0  0  0  0  0
   -1.4735    0.5037  -12.6417 C   0  0  0  0  0  0  0  0  0  0  0  0
   -0.4940    0.6991  -13.6267 C   0  0  0  0  0  0  0  0  0  0  0  0
    0.7450    1.2378  -13.2603 C   0  0  0  0  0  0  0  0  0  0  0  0
    0.9974    1.5587  -11.9983 N   0  0  0  0  0  0  0  0  0  0  0  0
    0.0675    1.3794  -11.0067 C   0  0  0  0  0  0  0  0  0  0  0  0
   -1.1667    0.8577  -11.2850 C   0  0  0  0  0  0  0  0  0  0  0  0
   -2.1057    0.6837  -10.2409 C   0  0  0  0  0  0  0  0  0  0  0  0
   -1.7749    1.0445   -8.9336 C   0  0  0  0  0  0  0  0  0  0  0  0
   -0.5185    1.5738   -8.6536 C   0  0  0  0  0  0  0  0  0  0  0  0
    0.4059    1.7467   -9.6746 C   0  0  0  0  0  0  0  0  0  0  0  0
   -4.1332    0.4717  -12.7618 C   0  0  0  0  0  0  0  0  0  0  0  0
   -4.5628    1.6161  -12.1580 N   0  0  0  0  0  0  0  0  0  0  0  0
   -5.8740    1.8881  -12.0570 C   0  0  0  0  0  0  0  0  0  0  0  0
   -8.8190    1.9487  -11.2711 C   0  0  0  0  0  0  0  0  0  0  0  0
  -10.1733    2.2326  -11.1041 C   0  0  0  0  0  0  0  0  0  0  0  0
  -12.9040    2.8562  -10.6309 C   0  0  0  0  0  0  0  0  0  0  0  0
  -14.3845    3.2293  -10.5519 C   0  0  0  0  0  0  0  0  0  0  0  0
  -15.2449    2.1408  -10.8378 N   0  0  0  0  0  0  0  0  0  0  0  0
  -14.9399    1.5385  -12.0874 C   0  0  0  0  0  0  0  0  0  0  0  0
  -13.4820    1.0955  -12.1678 C   0  0  0  0  0  0  0  0  0  0  0  0
  1  2  1  0  0  0  0
  2  3  2  0  0  0  0
  3  4  1  0  0  0  0
  4  5  2  0  0  0  0
  5  6  1  0  0  0  0
  6  7  2  0  0  0  0
  7  8  1  0  0  0  0
  8  9  1  0  0  0  0
  9 10  1  0  0  0  0
 10 11  2  0  0  0  0
 11 12  1  0  0  0  0
 12 13  2  0  0  0  0
 13 14  1  0  0  0  0
 14 15  2  0  0  0  0
 15 16  1  0  0  0  0
 12 17  1  0  0  0  0
 16 17  2  0  0  0  0
 17 18  1  0  0  0  0
 18 19  2  0  0  0  0
 19 20  1  0  0  0  0
 16 21  1  0  0  0  0
 20 21  2  0  0  0  0
  8 22  2  0  0  0  0
 11 22  1  0  0  0  0
 22 23  1  0  0  0  0
  6 24  1  0  0  0  0
 23 24  2  0  0  0  0
  5 25  1  0  0  0  0
  2 26  1  0  0  0  0
 25 26  2  0  0  0  0
  1 27  1  0  0  0  0
 27 28  1  0  0  0  0
 28 29  1  0  0  0  0
 29 30  1  0  0  0  0
  1 31  1  0  0  0  0
 30 31  1  0  0  0  0
M  END
$$$$
