obj01
  PyMOL3.1          3D                             0

 26 29  0  0  0  0  0  0  0  0999 V2000
  -12.8157    3.0252  -11.0570 C   0  0  0  0  0  0  0  0  0  0  0  0
  -11.8686    3.4818  -12.0187 O   0  0  0  0  0  0  0  0  0  0  0  0
  -10.8880    2.5243  -12.3697 C   0  0  0  0  0  0  0  0  0  0  0  0
   -9.5653    2.6890  -11.9481 C   0  0  0  0  0  0  0  0  0  0  0  0
   -8.5552    1.7404  -12.2964 C   0  0  0  0  0  0  0  0  0  0  0  0
   -8.8540    0.6047  -13.0797 C   0  0  0  0  0  0  0  0  0  0  0  0
   -7.8650   -0.4202  -13.4663 N   0  0  0  0  0  0  0  0  0  0  0  0
   -6.4376   -0.5044  -13.2920 C   0  0  0  0  0  0  0  0  0  0  0  0
   -5.8514   -1.4627  -14.0517 N   0  0  0  0  0  0  0  0  0  0  0  0
   -4.5152   -1.6308  -13.9501 C   0  0  0  0  0  0  0  0  0  0  0  0
   -3.7101   -0.8581  -13.1188 C   0  0  0  0  0  0  0  0  0  0  0  0
   -4.3319    0.1404  -12.3627 C   0  0  0  0  0  0  0  0  0  0  0  0
   -5.7219    0.3264  -12.3998 N   0  0  0  0  0  0  0  0  0  0  0  0
   -3.5284    0.9596  -11.3672 C   0  0  0  0  0  0  0  0  0  0  0  0
   -4.0671    1.5022  -10.1887 C   0  0  0  0  0  0  0  0  0  0  0  0
   -3.0589    2.1211   -9.4776 N   0  0  0  0  0  0  0  0  0  0  0  0
   -1.8522    1.9848  -10.1136 N   0  0  0  0  0  0  0  0  0  0  0  0
   -2.0688    1.2493  -11.2883 C   0  0  0  0  0  0  0  0  0  0  0  0
   -0.8685    1.0191  -12.1722 C   0  0  0  0  0  0  0  0  0  0  0  0
    0.4365    0.9615  -11.6357 C   0  0  0  0  0  0  0  0  0  0  0  0
    1.5865    0.7791  -12.3356 N   0  0  0  0  0  0  0  0  0  0  0  0
    1.5336    0.6855  -13.6867 C   0  0  0  0  0  0  0  0  0  0  0  0
    0.2983    0.7523  -14.3508 C   0  0  0  0  0  0  0  0  0  0  0  0
   -0.8782    0.9248  -13.5725 C   0  0  0  0  0  0  0  0  0  0  0  0
  -10.2154    0.4672  -13.4860 C   0  0  0  0  0  0  0  0  0  0  0  0
  -11.2162    1.4095  -13.1400 C   0  0  0  0  0  0  0  0  0  0  0  0
  1  2  1  0  0  0  0
  2  3  1  0  0  0  0
  3  4  1  0  0  0  0
  4  5  2  0  0  0  0
  5  6  1  0  0  0  0
  6  7  1  0  0  0  0
  7  8  1  0  0  0  0
  8  9  2  0  0  0  0
  9 10  1  0  0  0  0
 10 11  2  0  0  0  0
 11 12  1  0  0  0  0
  8 13  1  0  0  0  0
 12 13  2  0  0  0  0
 12 14  1  0  0  0  0
 14 15  2  0  0  0  0
 15 16  1  0  0  0  0
 16 17  1  0  0  0  0
 14 18  1  0  0  0  0
 17 18  2  0  0  0  0
 18 19  1  0  0  0  0
 19 20  2  0  0  0  0
 20 21  1  0  0  0  0
 21 22  2  0  0  0  0
 22 23  1  0  0  0  0
 19 24  1  0  0  0  0
 23 24  2  0  0  0  0
  6 25  2  0  0  0  0
  3 26  2  0  0  0  0
 25 26  1  0  0  0  0
M  END
$$$$
