obj01
  PyMOL3.1          3D                             0

 68 71  0  0  0  0  0  0  0  0999 V2000
  -10.4378    2.3761  -12.1168 O   0  0  0  0  0  0  0  0  0  0  0  0
  -10.0905    1.6878  -13.0163 C   0  0  0  0  0  0  0  0  0  0  0  0
  -10.9847    1.2537  -14.0620 N   0  0  0  0  0  0  0  0  0  0  0  0
  -12.3815    1.6444  -14.0325 C   0  0  0  0  0  0  0  0  0  0  0  0
  -13.1061    0.8106  -12.9812 C   0  0  0  0  0  0  0  0  0  0  0  0
  -13.4249    1.6479  -11.7446 C   0  0  0  0  0  0  0  0  0  0  0  0
  -13.6275    0.7872  -10.5996 N   0  0  0  0  0  0  0  0  0  0  0  0
  -15.0484    0.5367  -10.4533 C   0  0  0  0  0  0  0  0  0  0  0  0
  -13.1182    1.4502   -9.4162 C   0  0  0  0  0  0  0  0  0  0  0  0
   -8.6481    1.2167  -13.1439 C   0  0  0  0  0  0  0  0  0  0  0  0
   -8.3899    0.1639  -14.0076 C   0  0  0  0  0  0  0  0  0  0  0  0
   -7.0969   -0.3071  -14.1729 C   0  0  0  0  0  0  0  0  0  0  0  0
   -6.0664    0.3280  -13.4238 C   0  0  0  0  0  0  0  0  0  0  0  0
   -6.3342    1.3422  -12.5800 C   0  0  0  0  0  0  0  0  0  0  0  0
   -5.1780    1.7183  -11.9772 N   0  0  0  0  0  0  0  0  0  0  0  0
   -5.0651    2.8236  -11.0386 C   0  0  0  0  0  0  0  0  0  0  0  0
   -5.9601    2.5784   -9.8202 C   0  0  0  0  0  0  0  0  0  0  0  0
   -6.1603    4.1020   -9.7463 C   0  0  0  0  0  0  0  0  0  0  0  0
   -5.6691    4.2287  -11.1635 C   0  0  0  0  0  0  0  0  0  0  0  0
   -4.2206    0.9276  -12.4978 C   0  0  0  0  0  0  0  0  0  0  0  0
   -2.7614    1.0470  -12.1997 C   0  0  0  0  0  0  0  0  0  0  0  0
   -1.8754    1.0331  -13.2628 C   0  0  0  0  0  0  0  0  0  0  0  0
   -0.5182    1.1927  -13.0335 C   0  0  0  0  0  0  0  0  0  0  0  0
    0.4468    1.1654  -14.0161 O   0  0  0  0  0  0  0  0  0  0  0  0
   -0.0063    0.9128  -15.3215 C   0  0  0  0  0  0  0  0  0  0  0  0
   -0.0827    1.3921  -11.7408 C   0  0  0  0  0  0  0  0  0  0  0  0
    1.2773    1.5833  -11.5141 O   0  0  0  0  0  0  0  0  0  0  0  0
    2.0949    0.4456  -11.5588 C   0  0  0  0  0  0  0  0  0  0  0  0
   -0.9627    1.4422  -10.6913 C   0  0  0  0  0  0  0  0  0  0  0  0
   -0.4266    1.6506   -9.4152 O   0  0  0  0  0  0  0  0  0  0  0  0
   -1.3289    1.6158   -8.3539 C   0  0  0  0  0  0  0  0  0  0  0  0
   -2.3043    1.2761  -10.9147 C   0  0  0  0  0  0  0  0  0  0  0  0
   -4.7443    0.0718  -13.3776 N   0  0  0  0  0  0  0  0  0  0  0  0
   -7.6451    1.8312  -12.4039 C   0  0  0  0  0  0  0  0  0  0  0  0
  -10.6886    0.7635  -14.7035 H   0  0  0  0  0  0  0  0  0  0  0  0
  -12.4522    2.5852  -13.8074 H   0  0  0  0  0  0  0  0  0  0  0  0
  -12.7817    1.4908  -14.9018 H   0  0  0  0  0  0  0  0  0  0  0  0
  -12.5446    0.0625  -12.7246 H   0  0  0  0  0  0  0  0  0  0  0  0
  -13.9326    0.4694  -13.3581 H   0  0  0  0  0  0  0  0  0  0  0  0
  -14.2296    2.1649  -11.9053 H   0  0  0  0  0  0  0  0  0  0  0  0
  -12.6867    2.2514  -11.5656 H   0  0  0  0  0  0  0  0  0  0  0  0
  -15.1854   -0.1797   -9.8143 H   0  0  0  0  0  0  0  0  0  0  0  0
  -15.4214    0.2811  -11.3110 H   0  0  0  0  0  0  0  0  0  0  0  0
  -15.4872    1.3415  -10.1358 H   0  0  0  0  0  0  0  0  0  0  0  0
  -12.1563    1.3267   -9.3655 H   0  0  0  0  0  0  0  0  0  0  0  0
  -13.5348    1.0696   -8.6273 H   0  0  0  0  0  0  0  0  0  0  0  0
  -13.3204    2.3976   -9.4641 H   0  0  0  0  0  0  0  0  0  0  0  0
   -9.0884   -0.2300  -14.4789 H   0  0  0  0  0  0  0  0  0  0  0  0
   -6.9086   -1.0105  -14.7508 H   0  0  0  0  0  0  0  0  0  0  0  0
   -4.2899    2.7142  -10.4669 H   0  0  0  0  0  0  0  0  0  0  0  0
   -6.7746    2.0958  -10.0351 H   0  0  0  0  0  0  0  0  0  0  0  0
   -5.4791    2.2194   -9.0587 H   0  0  0  0  0  0  0  0  0  0  0  0
   -5.5693    4.5272   -9.1050 H   0  0  0  0  0  0  0  0  0  0  0  0
   -7.0932    4.3530   -9.6497 H   0  0  0  0  0  0  0  0  0  0  0  0
   -6.3893    4.2741  -11.8105 H   0  0  0  0  0  0  0  0  0  0  0  0
   -4.9976    4.9200  -11.2695 H   0  0  0  0  0  0  0  0  0  0  0  0
   -2.1903    0.9166  -14.1302 H   0  0  0  0  0  0  0  0  0  0  0  0
   -0.6662    1.5789  -15.5695 H   0  0  0  0  0  0  0  0  0  0  0  0
    0.7424    0.9545  -15.9368 H   0  0  0  0  0  0  0  0  0  0  0  0
   -0.4069    0.0303  -15.3594 H   0  0  0  0  0  0  0  0  0  0  0  0
    2.8168    0.5412  -10.9175 H   0  0  0  0  0  0  0  0  0  0  0  0
    1.5691   -0.3389  -11.3389 H   0  0  0  0  0  0  0  0  0  0  0  0
    2.4645    0.3483  -12.4505 H   0  0  0  0  0  0  0  0  0  0  0  0
   -1.7703    0.7518   -8.3332 H   0  0  0  0  0  0  0  0  0  0  0  0
   -1.9908    2.3149   -8.4697 H   0  0  0  0  0  0  0  0  0  0  0  0
   -0.8528    1.7547   -7.5205 H   0  0  0  0  0  0  0  0  0  0  0  0
   -2.9054    1.3177  -10.2060 H   0  0  0  0  0  0  0  0  0  0  0  0
   -7.8293    2.5316  -11.8207 H   0  0  0  0  0  0  0  0  0  0  0  0
  1  2  2  0  0  0  0
  2  3  1  0  0  0  0
  3  4  1  0  0  0  0
  4  5  1  0  0  0  0
  5  6  1  0  0  0  0
  6  7  1  0  0  0  0
  7  8  1  0  0  0  0
  7  9  1  0  0  0  0
  2 10  1  0  0  0  0
 10 11  1  0  0  0  0
 11 12  2  0  0  0  0
 12 13  1  0  0  0  0
 13 14  2  0  0  0  0
 14 15  1  0  0  0  0
 15 16  1  0  0  0  0
 16 17  1  0  0  0  0
 17 18  1  0  0  0  0
 16 19  1  0  0  0  0
 18 19  1  0  0  0  0
 15 20  1  0  0  0  0
 20 21  1  0  0  0  0
 21 22  1  0  0  0  0
 22 23  2  0  0  0  0
 23 24  1  0  0  0  0
 24 25  1  0  0  0  0
 23 26  1  0  0  0  0
 26 27  1  0  0  0  0
 27 28  1  0  0  0  0
 26 29  2  0  0  0  0
 29 30  1  0  0  0  0
 30 31  1  0  0  0  0
 21 32  2  0  0  0  0
 29 32  1  0  0  0  0
 13 33  1  0  0  0  0
 20 33  2  0  0  0  0
 10 34  2  0  0  0  0
 14 34  1  0  0  0  0
  3 35  1  0  0  0  0
  4 36  1  0  0  0  0
  4 37  1  0  0  0  0
  5 38  1  0  0  0  0
  5 39  1  0  0  0  0
  6 40  1  0  0  0  0
  6 41  1  0  0  0  0
  8 42  1  0  0  0  0
  8 43  1  0  0  0  0
  8 44  1  0  0  0  0
  9 45  1  0  0  0  0
  9 46  1  0  0  0  0
  9 47  1  0  0  0  0
 11 48  1  0  0  0  0
 12 49  1  0  0  0  0
 16 50  1  0  0  0  0
 17 51  1  0  0  0  0
 17 52  1  0  0  0  0
 18 53  1  0  0  0  0
 18 54  1  0  0  0  0
 19 55  1  0  0  0  0
 19 56  1  0  0  0  0
 22 57  1  0  0  0  0
 25 58  1  0  0  0  0
 25 59  1  0  0  0  0
 25 60  1  0  0  0  0
 28 61  1  0  0  0  0
 28 62  1  0  0  0  0
 28 63  1  0  0  0  0
 31 64  1  0  0  0  0
 31 65  1  0  0  0  0
 31 66  1  0  0  0  0
 32 67  1  0  0  0  0
 34 68  1  0  0  0  0
M  END
$$$$
