obj01
  PyMOL3.1          3D                             0

 79 83  0  0  0  0  0  0  0  0999 V2000
  -10.4576    2.3612  -11.9057 O   0  0  0  0  0  0  0  0  0  0  0  0
  -10.2084    1.7478  -12.9515 C   0  0  0  0  0  0  0  0  0  0  0  0
  -11.1638    1.7573  -14.0058 N   0  0  0  0  0  0  0  0  0  0  0  0
  -12.5247    2.3682  -13.9648 C   0  0  0  0  0  0  0  0  0  0  0  0
  -13.6844    1.3851  -13.5661 C   0  0  0  0  0  0  0  0  0  0  0  0
  -15.0645    2.0717  -13.5197 C   0  0  0  0  0  0  0  0  0  0  0  0
  -15.7030    1.9558  -12.1966 C   0  0  0  0  0  0  0  0  0  0  0  0
  -15.9006    0.5061  -11.8657 N   0  0  0  0  0  0  0  0  0  0  0  0
  -16.5808    0.4501  -10.6098 C   0  0  0  0  0  0  0  0  0  0  0  0
  -14.5557   -0.0946  -11.6093 C   0  0  0  0  0  0  0  0  0  0  0  0
  -13.3640    0.8073  -12.1910 C   0  0  0  0  0  0  0  0  0  0  0  0
   -8.7948    1.1870  -13.0726 C   0  0  0  0  0  0  0  0  0  0  0  0
   -8.4192    0.1161  -13.9129 C   0  0  0  0  0  0  0  0  0  0  0  0
   -7.1151   -0.3275  -14.0059 C   0  0  0  0  0  0  0  0  0  0  0  0
   -6.0757    0.3208  -13.2993 C   0  0  0  0  0  0  0  0  0  0  0  0
   -6.4174    1.4152  -12.4623 C   0  0  0  0  0  0  0  0  0  0  0  0
   -5.1853    1.8450  -11.9050 N   0  0  0  0  0  0  0  0  0  0  0  0
   -4.9504    2.9247  -10.9616 C   0  0  0  0  0  0  0  0  0  0  0  0
   -5.8475    2.9584   -9.6458 C   0  0  0  0  0  0  0  0  0  0  0  0
   -5.8354    4.4955   -9.7190 C   0  0  0  0  0  0  0  0  0  0  0  0
   -4.7464    5.0196   -8.8129 C   0  0  0  0  0  0  0  0  0  0  0  0
   -5.0049    5.1737   -7.4521 N   0  0  0  0  0  0  0  0  0  0  0  0
   -3.9513    5.6637   -6.5477 C   0  0  0  0  0  0  0  0  0  0  0  0
   -3.6230    5.2598   -9.2278 O   0  0  0  0  0  0  0  0  0  0  0  0
   -5.5788    4.3474  -11.2335 C   0  0  0  0  0  0  0  0  0  0  0  0
   -4.1583    0.9724  -12.3745 C   0  0  0  0  0  0  0  0  0  0  0  0
   -2.6879    1.0876  -12.0937 C   0  0  0  0  0  0  0  0  0  0  0  0
   -2.1601    1.3041  -10.8073 C   0  0  0  0  0  0  0  0  0  0  0  0
   -0.7839    1.4838  -10.5612 C   0  0  0  0  0  0  0  0  0  0  0  0
   -0.3205    1.7010   -9.2645 O   0  0  0  0  0  0  0  0  0  0  0  0
   -1.2554    1.5131   -8.2075 C   0  0  0  0  0  0  0  0  0  0  0  0
    0.1361    1.5387  -11.6102 C   0  0  0  0  0  0  0  0  0  0  0  0
    1.4582    1.6900  -11.3317 O   0  0  0  0  0  0  0  0  0  0  0  0
    2.2271    0.5067  -11.4872 C   0  0  0  0  0  0  0  0  0  0  0  0
   -0.3688    1.3239  -12.9137 C   0  0  0  0  0  0  0  0  0  0  0  0
    0.5390    1.3920  -13.9271 O   0  0  0  0  0  0  0  0  0  0  0  0
    0.0772    1.1307  -15.1734 C   0  0  0  0  0  0  0  0  0  0  0  0
   -1.7552    1.1483  -13.1493 C   0  0  0  0  0  0  0  0  0  0  0  0
   -4.6745    0.0812  -13.2576 N   0  0  0  0  0  0  0  0  0  0  0  0
   -7.7759    1.8227  -12.3741 C   0  0  0  0  0  0  0  0  0  0  0  0
  -10.9566    1.3239  -14.8911 H   0  0  0  0  0  0  0  0  0  0  0  0
  -12.5522    3.2301  -13.2606 H   0  0  0  0  0  0  0  0  0  0  0  0
  -12.7856    2.8241  -14.9456 H   0  0  0  0  0  0  0  0  0  0  0  0
  -13.8084    0.5379  -14.2857 H   0  0  0  0  0  0  0  0  0  0  0  0
  -15.0060    3.1462  -13.7891 H   0  0  0  0  0  0  0  0  0  0  0  0
  -15.7594    1.6644  -14.2814 H   0  0  0  0  0  0  0  0  0  0  0  0
  -15.0694    2.4829  -11.4436 H   0  0  0  0  0  0  0  0  0  0  0  0
  -16.6621    2.5254  -12.2087 H   0  0  0  0  0  0  0  0  0  0  0  0
  -16.8559   -0.5922  -10.4003 H   0  0  0  0  0  0  0  0  0  0  0  0
  -15.9109    0.8288   -9.8251 H   0  0  0  0  0  0  0  0  0  0  0  0
  -17.4844    1.0738  -10.6663 H   0  0  0  0  0  0  0  0  0  0  0  0
  -14.5412   -1.1177  -12.0455 H   0  0  0  0  0  0  0  0  0  0  0  0
  -14.4469   -0.2532  -10.5144 H   0  0  0  0  0  0  0  0  0  0  0  0
  -13.1382    1.6258  -11.4810 H   0  0  0  0  0  0  0  0  0  0  0  0
  -12.4356    0.2070  -12.2403 H   0  0  0  0  0  0  0  0  0  0  0  0
   -9.1953   -0.3750  -14.5088 H   0  0  0  0  0  0  0  0  0  0  0  0
   -6.9053   -1.1910  -14.6404 H   0  0  0  0  0  0  0  0  0  0  0  0
   -3.8448    2.9376  -10.8149 H   0  0  0  0  0  0  0  0  0  0  0  0
   -6.8479    2.5141   -9.6803 H   0  0  0  0  0  0  0  0  0  0  0  0
   -5.4362    2.5481   -8.7172 H   0  0  0  0  0  0  0  0  0  0  0  0
   -6.7898    5.0367   -9.5321 H   0  0  0  0  0  0  0  0  0  0  0  0
   -5.9041    4.9582   -7.0529 H   0  0  0  0  0  0  0  0  0  0  0  0
   -4.3369    6.3666   -5.7874 H   0  0  0  0  0  0  0  0  0  0  0  0
   -3.4564    4.8487   -5.9902 H   0  0  0  0  0  0  0  0  0  0  0  0
   -3.1483    6.2017   -7.0829 H   0  0  0  0  0  0  0  0  0  0  0  0
   -4.8894    5.0833  -11.6718 H   0  0  0  0  0  0  0  0  0  0  0  0
   -6.4772    4.3442  -11.8688 H   0  0  0  0  0  0  0  0  0  0  0  0
   -2.8067    1.3408   -9.9302 H   0  0  0  0  0  0  0  0  0  0  0  0
   -0.7478    1.4846   -7.2279 H   0  0  0  0  0  0  0  0  0  0  0  0
   -1.9948    2.3321   -8.1810 H   0  0  0  0  0  0  0  0  0  0  0  0
   -1.8072    0.5649   -8.3291 H   0  0  0  0  0  0  0  0  0  0  0  0
    3.3108    0.7165  -11.5093 H   0  0  0  0  0  0  0  0  0  0  0  0
    1.9861   -0.0243  -12.4239 H   0  0  0  0  0  0  0  0  0  0  0  0
    2.0578   -0.2087  -10.6634 H   0  0  0  0  0  0  0  0  0  0  0  0
   -0.5021    2.0039  -15.5100 H   0  0  0  0  0  0  0  0  0  0  0  0
    0.9458    0.9575  -15.8268 H   0  0  0  0  0  0  0  0  0  0  0  0
   -0.5589    0.2331  -15.1168 H   0  0  0  0  0  0  0  0  0  0  0  0
   -2.0561    1.0644  -14.1943 H   0  0  0  0  0  0  0  0  0  0  0  0
   -8.0779    2.6635  -11.7458 H   0  0  0  0  0  0  0  0  0  0  0  0
  1  2  2  0  0  0  0
  2  3  1  0  0  0  0
  3  4  1  0  0  0  0
  4  5  1  0  0  0  0
  5  6  1  0  0  0  0
  6  7  1  0  0  0  0
  7  8  1  0  0  0  0
  8  9  1  0  0  0  0
  8 10  1  0  0  0  0
  5 11  1  0  0  0  0
 10 11  1  0  0  0  0
  2 12  1  0  0  0  0
 12 13  2  0  0  0  0
 13 14  1  0  0  0  0
 14 15  2  0  0  0  0
 15 16  1  0  0  0  0
 16 17  1  0  0  0  0
 17 18  1  0  0  0  0
 18 19  1  0  0  0  0
 19 20  1  0  0  0  0
 20 21  1  0  0  0  0
 21 22  1  0  0  0  0
 22 23  1  0  0  0  0
 21 24  2  0  0  0  0
 18 25  1  0  0  0  0
 20 25  1  0  0  0  0
 17 26  1  0  0  0  0
 26 27  1  0  0  0  0
 27 28  2  0  0  0  0
 28 29  1  0  0  0  0
 29 30  1  0  0  0  0
 30 31  1  0  0  0  0
 29 32  2  0  0  0  0
 32 33  1  0  0  0  0
 33 34  1  0  0  0  0
 32 35  1  0  0  0  0
 35 36  1  0  0  0  0
 36 37  1  0  0  0  0
 27 38  1  0  0  0  0
 35 38  2  0  0  0  0
 15 39  1  0  0  0  0
 26 39  2  0  0  0  0
 12 40  1  0  0  0  0
 16 40  2  0  0  0  0
  3 41  1  0  0  0  0
  4 42  1  0  0  0  0
  4 43  1  0  0  0  0
  5 44  1  0  0  0  0
  6 45  1  0  0  0  0
  6 46  1  0  0  0  0
  7 47  1  0  0  0  0
  7 48  1  0  0  0  0
  9 49  1  0  0  0  0
  9 50  1  0  0  0  0
  9 51  1  0  0  0  0
 10 52  1  0  0  0  0
 10 53  1  0  0  0  0
 11 54  1  0  0  0  0
 11 55  1  0  0  0  0
 13 56  1  0  0  0  0
 14 57  1  0  0  0  0
 18 58  1  0  0  0  0
 19 59  1  0  0  0  0
 19 60  1  0  0  0  0
 20 61  1  0  0  0  0
 22 62  1  0  0  0  0
 23 63  1  0  0  0  0
 23 64  1  0  0  0  0
 23 65  1  0  0  0  0
 25 66  1  0  0  0  0
 25 67  1  0  0  0  0
 28 68  1  0  0  0  0
 31 69  1  0  0  0  0
 31 70  1  0  0  0  0
 31 71  1  0  0  0  0
 34 72  1  0  0  0  0
 34 73  1  0  0  0  0
 34 74  1  0  0  0  0
 37 75  1  0  0  0  0
 37 76  1  0  0  0  0
 37 77  1  0  0  0  0
 38 78  1  0  0  0  0
 40 79  1  0  0  0  0
M  END
$$$$
