obj01
  PyMOL3.1          3D                             0

 75 78  0  0  0  0  0  0  0  0999 V2000
  -10.0031    2.9718  -11.7450 O   0  0  0  0  0  0  0  0  0  0  0  0
  -10.0746    2.0451  -12.5907 C   0  0  0  0  0  0  0  0  0  0  0  0
  -11.4373    1.9137  -13.0678 N   0  0  0  0  0  0  0  0  0  0  0  0
  -12.0247    0.9840  -14.0293 C   0  0  0  0  0  0  0  0  0  0  0  0
  -13.3807    0.4181  -13.4181 C   0  0  0  0  0  0  0  0  0  0  0  0
  -13.2605    0.0687  -11.8790 C   0  0  0  0  0  0  0  0  0  0  0  0
  -13.7382    1.1837  -10.9562 N   0  0  0  0  0  0  0  0  0  0  0  0
  -12.8855    1.2226   -9.6914 C   0  0  0  0  0  0  0  0  0  0  0  0
  -15.1551    0.9338  -10.5683 C   0  0  0  0  0  0  0  0  0  0  0  0
   -8.7198    1.3248  -12.9409 C   0  0  0  0  0  0  0  0  0  0  0  0
   -8.5322    0.2479  -13.8212 C   0  0  0  0  0  0  0  0  0  0  0  0
   -7.2098   -0.3248  -14.0871 C   0  0  0  0  0  0  0  0  0  0  0  0
   -6.1090    0.2864  -13.3917 C   0  0  0  0  0  0  0  0  0  0  0  0
   -6.3002    1.3418  -12.5506 C   0  0  0  0  0  0  0  0  0  0  0  0
   -5.0960    1.7115  -12.0481 N   0  0  0  0  0  0  0  0  0  0  0  0
   -4.8026    2.8091  -11.0938 C   0  0  0  0  0  0  0  0  0  0  0  0
   -5.6065    2.6975   -9.7601 C   0  0  0  0  0  0  0  0  0  0  0  0
   -6.1113    4.1500   -9.9110 C   0  0  0  0  0  0  0  0  0  0  0  0
   -5.5049    5.1425   -8.9638 C   0  0  0  0  0  0  0  0  0  0  0  0
   -4.1081    5.2982   -8.5840 N   0  0  0  0  0  0  0  0  0  0  0  0
   -2.9789    4.4946   -9.0921 C   0  0  0  0  0  0  0  0  0  0  0  0
   -6.2654    5.9829   -8.3939 O   0  0  0  0  0  0  0  0  0  0  0  0
   -5.5251    4.1610  -11.3611 C   0  0  0  0  0  0  0  0  0  0  0  0
   -4.0903    0.8756  -12.5539 C   0  0  0  0  0  0  0  0  0  0  0  0
   -2.5977    0.9908  -12.2621 C   0  0  0  0  0  0  0  0  0  0  0  0
   -1.6868    0.9602  -13.3243 C   0  0  0  0  0  0  0  0  0  0  0  0
   -0.3213    1.1047  -13.0549 C   0  0  0  0  0  0  0  0  0  0  0  0
    0.5793    1.0309  -14.1796 O   0  0  0  0  0  0  0  0  0  0  0  0
   -0.0202    1.0318  -15.4742 C   0  0  0  0  0  0  0  0  0  0  0  0
    0.1555    1.3087  -11.7788 C   0  0  0  0  0  0  0  0  0  0  0  0
    1.5905    1.4585  -11.5439 O   0  0  0  0  0  0  0  0  0  0  0  0
    2.2613    0.2266  -11.6557 C   0  0  0  0  0  0  0  0  0  0  0  0
   -0.7125    1.3509  -10.7290 C   0  0  0  0  0  0  0  0  0  0  0  0
   -0.1985    1.5688   -9.3725 O   0  0  0  0  0  0  0  0  0  0  0  0
   -1.1057    1.3523   -8.3017 C   0  0  0  0  0  0  0  0  0  0  0  0
   -2.0949    1.2085  -10.9241 C   0  0  0  0  0  0  0  0  0  0  0  0
   -4.6913   -0.0291  -13.4283 N   0  0  0  0  0  0  0  0  0  0  0  0
   -7.6188    1.9170  -12.2872 C   0  0  0  0  0  0  0  0  0  0  0  0
  -12.0482    2.5502  -12.6792 H   0  0  0  0  0  0  0  0  0  0  0  0
  -11.3014    0.1555  -14.2847 H   0  0  0  0  0  0  0  0  0  0  0  0
  -12.1909    1.4870  -15.0267 H   0  0  0  0  0  0  0  0  0  0  0  0
  -14.2135    1.1538  -13.5400 H   0  0  0  0  0  0  0  0  0  0  0  0
  -13.7092   -0.5044  -13.9571 H   0  0  0  0  0  0  0  0  0  0  0  0
  -13.8396   -0.8567  -11.6603 H   0  0  0  0  0  0  0  0  0  0  0  0
  -12.2028   -0.1766  -11.6342 H   0  0  0  0  0  0  0  0  0  0  0  0
  -11.7997    1.3737   -9.8758 H   0  0  0  0  0  0  0  0  0  0  0  0
  -13.1563    2.0324   -8.9811 H   0  0  0  0  0  0  0  0  0  0  0  0
  -12.9304    0.2969   -9.0799 H   0  0  0  0  0  0  0  0  0  0  0  0
  -15.2663   -0.0032   -9.9832 H   0  0  0  0  0  0  0  0  0  0  0  0
  -15.5656    1.7531   -9.9420 H   0  0  0  0  0  0  0  0  0  0  0  0
  -15.8184    0.8415  -11.4526 H   0  0  0  0  0  0  0  0  0  0  0  0
   -9.3678   -0.1828  -14.3239 H   0  0  0  0  0  0  0  0  0  0  0  0
   -7.1558   -1.1358  -14.7633 H   0  0  0  0  0  0  0  0  0  0  0  0
   -3.6994    2.9234  -10.9406 H   0  0  0  0  0  0  0  0  0  0  0  0
   -6.3985    1.9285   -9.7859 H   0  0  0  0  0  0  0  0  0  0  0  0
   -4.9702    2.5199   -8.8750 H   0  0  0  0  0  0  0  0  0  0  0  0
   -7.2173    4.2057   -9.9241 H   0  0  0  0  0  0  0  0  0  0  0  0
   -3.9531    5.9981   -7.9439 H   0  0  0  0  0  0  0  0  0  0  0  0
   -2.6343    4.7315  -10.1009 H   0  0  0  0  0  0  0  0  0  0  0  0
   -3.1448    3.4166   -9.1547 H   0  0  0  0  0  0  0  0  0  0  0  0
   -2.0518    4.5491   -8.5159 H   0  0  0  0  0  0  0  0  0  0  0  0
   -4.8273    4.9969  -11.5915 H   0  0  0  0  0  0  0  0  0  0  0  0
   -6.2733    4.1081  -12.1832 H   0  0  0  0  0  0  0  0  0  0  0  0
   -2.0686    0.8235  -14.3377 H   0  0  0  0  0  0  0  0  0  0  0  0
    0.7709    0.9848  -16.2508 H   0  0  0  0  0  0  0  0  0  0  0  0
   -0.6129    1.9610  -15.6079 H   0  0  0  0  0  0  0  0  0  0  0  0
   -0.6884    0.1522  -15.5750 H   0  0  0  0  0  0  0  0  0  0  0  0
    1.9810   -0.4374  -10.8287 H   0  0  0  0  0  0  0  0  0  0  0  0
    2.0018   -0.2651  -12.6016 H   0  0  0  0  0  0  0  0  0  0  0  0
    3.3476    0.3783  -11.6285 H   0  0  0  0  0  0  0  0  0  0  0  0
   -0.5742    1.2746   -7.3362 H   0  0  0  0  0  0  0  0  0  0  0  0
   -1.6786    0.4182   -8.4446 H   0  0  0  0  0  0  0  0  0  0  0  0
   -1.8313    2.1819   -8.2183 H   0  0  0  0  0  0  0  0  0  0  0  0
   -2.8006    1.2579  -10.0928 H   0  0  0  0  0  0  0  0  0  0  0  0
   -7.6970    2.7340  -11.6342 H   0  0  0  0  0  0  0  0  0  0  0  0
  1  2  2  0  0  0  0
  2  3  1  0  0  0  0
  3  4  1  0  0  0  0
  4  5  1  0  0  0  0
  5  6  1  0  0  0  0
  6  7  1  0  0  0  0
  7  8  1  0  0  0  0
  7  9  1  0  0  0  0
  2 10  1  0  0  0  0
 10 11  1  0  0  0  0
 11 12  2  0  0  0  0
 12 13  1  0  0  0  0
 13 14  2  0  0  0  0
 14 15  1  0  0  0  0
 15 16  1  0  0  0  0
 16 17  1  0  0  0  0
 17 18  1  0  0  0  0
 18 19  1  0  0  0  0
 19 20  1  0  0  0  0
 20 21  1  0  0  0  0
 19 22  2  0  0  0  0
 16 23  1  0  0  0  0
 18 23  1  0  0  0  0
 15 24  1  0  0  0  0
 24 25  1  0  0  0  0
 25 26  2  0  0  0  0
 26 27  1  0  0  0  0
 27 28  1  0  0  0  0
 28 29  1  0  0  0  0
 27 30  2  0  0  0  0
 30 31  1  0  0  0  0
 31 32  1  0  0  0  0
 30 33  1  0  0  0  0
 33 34  1  0  0  0  0
 34 35  1  0  0  0  0
 25 36  1  0  0  0  0
 33 36  2  0  0  0  0
 13 37  1  0  0  0  0
 24 37  2  0  0  0  0
 10 38  2  0  0  0  0
 14 38  1  0  0  0  0
  3 39  1  0  0  0  0
  4 40  1  0  0  0  0
  4 41  1  0  0  0  0
  5 42  1  0  0  0  0
  5 43  1  0  0  0  0
  6 44  1  0  0  0  0
  6 45  1  0  0  0  0
  8 46  1  0  0  0  0
  8 47  1  0  0  0  0
  8 48  1  0  0  0  0
  9 49  1  0  0  0  0
  9 50  1  0  0  0  0
  9 51  1  0  0  0  0
 11 52  1  0  0  0  0
 12 53  1  0  0  0  0
 16 54  1  0  0  0  0
 17 55  1  0  0  0  0
 17 56  1  0  0  0  0
 18 57  1  0  0  0  0
 20 58  1  0  0  0  0
 21 59  1  0  0  0  0
 21 60  1  0  0  0  0
 21 61  1  0  0  0  0
 23 62  1  0  0  0  0
 23 63  1  0  0  0  0
 26 64  1  0  0  0  0
 29 65  1  0  0  0  0
 29 66  1  0  0  0  0
 29 67  1  0  0  0  0
 32 68  1  0  0  0  0
 32 69  1  0  0  0  0
 32 70  1  0  0  0  0
 35 71  1  0  0  0  0
 35 72  1  0  0  0  0
 35 73  1  0  0  0  0
 36 74  1  0  0  0  0
 38 75  1  0  0  0  0
M  END
$$$$
