obj01
  PyMOL3.1          3D                             0

 26 28  0  0  0  0  0  0  0  0999 V2000
   -2.1474    2.0354   -8.4860 C   0  0  0  0  0  0  0  0  0  0  0  0
    0.2398    1.2308  -15.3246 C   0  0  0  0  0  0  0  0  0  0  0  0
    1.8752    1.2917  -11.1657 C   0  0  0  0  0  0  0  0  0  0  0  0
   -9.9811    1.7464  -12.8186 C   0  0  0  0  0  0  0  0  0  0  0  0
  -10.0900    2.2212  -11.5783 C   0  0  0  0  0  0  0  0  0  0  0  0
   -8.7625    1.0983  -13.2521 C   0  0  0  0  0  0  0  0  0  0  0  0
   -6.6395   -0.8791  -13.5522 C   0  0  0  0  0  0  0  0  0  0  0  0
   -7.8246    1.4626  -11.0718 C   0  0  0  0  0  0  0  0  0  0  0  0
   -2.6485    0.9150  -11.0750 C   0  0  0  0  0  0  0  0  0  0  0  0
   -1.9227    0.7864  -13.4430 C   0  0  0  0  0  0  0  0  0  0  0  0
   -5.2752    0.7870  -12.4249 C   0  0  0  0  0  0  0  0  0  0  0  0
   -8.9879    2.0786  -10.6573 C   0  0  0  0  0  0  0  0  0  0  0  0
   -4.3067   -1.1032  -13.6120 C   0  0  0  0  0  0  0  0  0  0  0  0
   -7.7012    0.9640  -12.3929 C   0  0  0  0  0  0  0  0  0  0  0  0
   -6.5541    0.3220  -12.7879 C   0  0  0  0  0  0  0  0  0  0  0  0
   -2.9197    0.5841  -12.4777 C   0  0  0  0  0  0  0  0  0  0  0  0
   -1.4024    1.4289  -10.6927 C   0  0  0  0  0  0  0  0  0  0  0  0
   -0.6365    1.3021  -13.0562 C   0  0  0  0  0  0  0  0  0  0  0  0
   -4.1502    0.0988  -12.8247 C   0  0  0  0  0  0  0  0  0  0  0  0
   -0.4082    1.6261  -11.6712 C   0  0  0  0  0  0  0  0  0  0  0  0
   -3.1727   -1.8968  -14.0742 N   0  0  0  0  0  0  0  0  0  0  0  0
   -5.5362   -1.5401  -13.9334 N   0  0  0  0  0  0  0  0  0  0  0  0
   -9.1088    2.5681   -9.3453 O   0  0  0  0  0  0  0  0  0  0  0  0
   -1.1182    1.7401   -9.4372 O   0  0  0  0  0  0  0  0  0  0  0  0
    0.4007    1.5174  -13.9726 O   0  0  0  0  0  0  0  0  0  0  0  0
    0.8500    2.1439  -11.2671 O   0  0  0  0  0  0  0  0  0  0  0  0
  4  5  2  0  0  0  0
  4  6  1  0  0  0  0
  5 12  1  0  0  0  0
  8 12  2  0  0  0  0
  6 14  2  0  0  0  0
  8 14  1  0  0  0  0
  7 15  1  0  0  0  0
 11 15  2  0  0  0  0
 14 15  1  0  0  0  0
  9 16  2  0  0  0  0
 10 16  1  0  0  0  0
  9 17  1  0  0  0  0
 10 18  2  0  0  0  0
 11 19  1  0  0  0  0
 13 19  2  0  0  0  0
 16 19  1  0  0  0  0
 17 20  2  0  0  0  0
 18 20  1  0  0  0  0
 13 21  1  0  0  0  0
  7 22  2  0  0  0  0
 13 22  1  0  0  0  0
 12 23  1  0  0  0  0
  1 24  1  0  0  0  0
 17 24  1  0  0  0  0
  2 25  1  0  0  0  0
 18 25  1  0  0  0  0
  3 26  1  0  0  0  0
 20 26  1  0  0  0  0
M  END
$$$$
