obj01
  PyMOL3.1          3D                             0

 31 33  0  0  0  0  0  0  0  0999 V2000
   -2.2149    5.9286   -9.1527 P   0  0  0  0  0  0  0  0  0  0  0  0
   -2.8093    5.9648   -6.4215 P   0  0  0  0  0  0  0  0  0  0  0  0
   -0.9266    7.6565   -5.1137 P   0  0  0  0  0  0  0  0  0  0  0  0
   -4.7698    6.0178   -9.8999 C   0  0  0  0  0  0  0  0  0  0  0  0
   -3.6005    5.2860   -9.4774 O   0  0  0  0  0  0  0  0  0  0  0  0
   -5.8546    4.9748   -9.9337 C   0  0  0  0  0  0  0  0  0  0  0  0
   -5.8161    4.2948  -11.2043 O   0  0  0  0  0  0  0  0  0  0  0  0
   -5.6861    3.8543   -8.9140 C   0  0  0  0  0  0  0  0  0  0  0  0
   -6.1633    4.2132   -7.6216 O   0  0  0  0  0  0  0  0  0  0  0  0
   -6.5082    2.7335   -9.5397 C   0  0  0  0  0  0  0  0  0  0  0  0
   -7.8761    2.9404   -9.2128 O   0  0  0  0  0  0  0  0  0  0  0  0
   -6.2677    2.9606  -11.0396 C   0  0  0  0  0  0  0  0  0  0  0  0
   -5.3257   -1.0886  -14.0837 N   0  0  0  0  0  0  0  0  0  0  0  0
   -1.2731    4.8005   -9.0096 O   0  0  0  0  0  0  0  0  0  0  0  0
   -4.2884    5.7159   -6.4229 O   0  0  0  0  0  0  0  0  0  0  0  0
   -0.0839    7.4544   -3.8974 O   0  0  0  0  0  0  0  0  0  0  0  0
   -6.4585   -0.4584  -13.7668 C   0  0  0  0  0  0  0  0  0  0  0  0
   -1.8560    6.9292  -10.2523 O   0  0  0  0  0  0  0  0  0  0  0  0
   -2.0520    4.5983   -6.3784 O   0  0  0  0  0  0  0  0  0  0  0  0
   -1.3237    9.1911   -5.1883 O   0  0  0  0  0  0  0  0  0  0  0  0
   -6.6366    0.5951  -12.9655 N   0  0  0  0  0  0  0  0  0  0  0  0
   -2.3889    6.7933   -5.0172 N   0  0  0  0  0  0  0  0  0  0  0  0
   -2.4352    6.7214   -7.7542 O   0  0  0  0  0  0  0  0  0  0  0  0
   -0.1187    7.1986   -6.4016 O   0  0  0  0  0  0  0  0  0  0  0  0
   -5.4708    1.0172  -12.4613 C   0  0  0  0  0  0  0  0  0  0  0  0
   -4.2254    0.4692  -12.6923 C   0  0  0  0  0  0  0  0  0  0  0  0
   -4.1635   -0.6462  -13.5507 C   0  0  0  0  0  0  0  0  0  0  0  0
   -3.0317   -1.2910  -13.8584 N   0  0  0  0  0  0  0  0  0  0  0  0
   -3.2463    1.1673  -11.9989 N   0  0  0  0  0  0  0  0  0  0  0  0
   -3.9197    2.0986  -11.3701 C   0  0  0  0  0  0  0  0  0  0  0  0
   -5.2689    2.0693  -11.6034 N   0  0  0  0  0  0  0  0  0  0  0  0
  1  5  1  0  0  0  0
  4  5  1  0  0  0  0
  4  6  1  0  0  0  0
  6  7  1  0  0  0  0
  6  8  1  0  0  0  0
  8  9  1  0  0  0  0
  8 10  1  0  0  0  0
 10 11  1  0  0  0  0
  7 12  1  0  0  0  0
 10 12  1  0  0  0  0
  1 14  2  0  0  0  0
  2 15  2  0  0  0  0
  3 16  2  0  0  0  0
 13 17  1  0  0  0  0
  1 18  1  0  0  0  0
  2 19  1  0  0  0  0
  3 20  1  0  0  0  0
 17 21  2  0  0  0  0
  2 22  1  0  0  0  0
  3 22  1  0  0  0  0
  1 23  1  0  0  0  0
  2 23  1  0  0  0  0
  3 24  1  0  0  0  0
 21 25  1  0  0  0  0
 25 26  2  0  0  0  0
 13 27  2  0  0  0  0
 26 27  1  0  0  0  0
 27 28  1  0  0  0  0
 26 29  1  0  0  0  0
 29 30  2  0  0  0  0
 12 31  1  0  0  0  0
 25 31  1  0  0  0  0
 30 31  1  0  0  0  0
M  END
$$$$
