obj01
  PyMOL3.1          3D                             0

 31 36  0  0  0  0  0  0  0  0999 V2000
  -14.6867    3.4493  -10.6542 C   0  0  0  0  0  0  0  0  0  0  0  0
  -13.1849    3.2123  -10.7803 C   0  0  0  0  0  0  0  0  0  0  0  0
  -12.7697    2.1891  -11.7056 N   0  0  0  0  0  0  0  0  0  0  0  0
  -13.5346    0.9866  -11.4744 C   0  0  0  0  0  0  0  0  0  0  0  0
  -15.0444    1.2046  -11.4284 C   0  0  0  0  0  0  0  0  0  0  0  0
  -15.4489    2.2415  -10.4984 N   0  0  0  0  0  0  0  0  0  0  0  0
  -11.3666    1.9849  -11.9065 C   0  0  0  0  0  0  0  0  0  0  0  0
  -10.3956    2.4850  -11.0410 C   0  0  0  0  0  0  0  0  0  0  0  0
   -9.0434    2.2493  -11.2467 C   0  0  0  0  0  0  0  0  0  0  0  0
   -8.6055    1.4847  -12.3310 C   0  0  0  0  0  0  0  0  0  0  0  0
   -9.5848    0.9468  -13.1627 C   0  0  0  0  0  0  0  0  0  0  0  0
  -10.9373    1.1985  -12.9544 C   0  0  0  0  0  0  0  0  0  0  0  0
   -7.2330    1.2034  -12.5102 C   0  0  0  0  0  0  0  0  0  0  0  0
   -6.2252    2.0388  -11.9944 C   0  0  0  0  0  0  0  0  0  0  0  0
   -4.9218    1.7258  -12.1501 N   0  0  0  0  0  0  0  0  0  0  0  0
   -4.5562    0.5615  -12.7715 C   0  0  0  0  0  0  0  0  0  0  0  0
   -3.2657    0.0155  -13.0358 C   0  0  0  0  0  0  0  0  0  0  0  0
   -3.5183   -1.1763  -13.7031 C   0  0  0  0  0  0  0  0  0  0  0  0
   -4.8424   -1.3325  -13.8356 N   0  0  0  0  0  0  0  0  0  0  0  0
   -5.4781   -0.2638  -13.2585 N   0  0  0  0  0  0  0  0  0  0  0  0
   -6.8158    0.0186  -13.1298 C   0  0  0  0  0  0  0  0  0  0  0  0
   -1.9718    0.4968  -12.7613 C   0  0  0  0  0  0  0  0  0  0  0  0
   -1.0697    0.4864  -13.8339 C   0  0  0  0  0  0  0  0  0  0  0  0
    0.2651    0.8898  -13.6910 C   0  0  0  0  0  0  0  0  0  0  0  0
    0.7201    1.3424  -12.4535 C   0  0  0  0  0  0  0  0  0  0  0  0
   -0.1723    1.3462  -11.3459 C   0  0  0  0  0  0  0  0  0  0  0  0
   -1.4888    0.9337  -11.4760 C   0  0  0  0  0  0  0  0  0  0  0  0
   -2.3124    0.9791  -10.2959 C   0  0  0  0  0  0  0  0  0  0  0  0
   -1.7652    1.4294   -9.0977 C   0  0  0  0  0  0  0  0  0  0  0  0
   -0.4220    1.8232   -9.0419 C   0  0  0  0  0  0  0  0  0  0  0  0
    0.3579    1.7862  -10.1429 N   0  0  0  0  0  0  0  0  0  0  0  0
  1  2  1  0  0  0  0
  2  3  1  0  0  0  0
  3  4  1  0  0  0  0
  4  5  1  0  0  0  0
  1  6  1  0  0  0  0
  5  6  1  0  0  0  0
  3  7  1  0  0  0  0
  7  8  1  0  0  0  0
  8  9  2  0  0  0  0
  9 10  1  0  0  0  0
 10 11  2  0  0  0  0
  7 12  2  0  0  0  0
 11 12  1  0  0  0  0
 10 13  1  0  0  0  0
 13 14  1  0  0  0  0
 14 15  2  0  0  0  0
 15 16  1  0  0  0  0
 16 17  2  0  0  0  0
 17 18  1  0  0  0  0
 18 19  2  0  0  0  0
 16 20  1  0  0  0  0
 19 20  1  0  0  0  0
 13 21  2  0  0  0  0
 20 21  1  0  0  0  0
 17 22  1  0  0  0  0
 22 23  2  0  0  0  0
 23 24  1  0  0  0  0
 24 25  2  0  0  0  0
 25 26  1  0  0  0  0
 22 27  1  0  0  0  0
 26 27  1  0  0  0  0
 27 28  2  0  0  0  0
 28 29  1  0  0  0  0
 29 30  2  0  0  0  0
 26 31  2  0  0  0  0
 30 31  1  0  0  0  0
M  END
$$$$
