obj01
  PyMOL3.1          3D                             0

 23 26  0  0  0  0  0  0  0  0999 V2000
    1.2636    0.4611  -13.6410 Cl  0  0  0  0  0  0  0  0  0  0  0  0
   -0.2858    0.6920  -12.8637 C   0  0  0  0  0  0  0  0  0  0  0  0
   -0.3819    1.4322  -11.6882 C   0  0  0  0  0  0  0  0  0  0  0  0
   -1.6173    1.6121  -11.0683 C   0  0  0  0  0  0  0  0  0  0  0  0
   -2.7497    1.0585  -11.6414 C   0  0  0  0  0  0  0  0  0  0  0  0
   -2.6567    0.3197  -12.8268 C   0  0  0  0  0  0  0  0  0  0  0  0
   -1.4231    0.1333  -13.4365 C   0  0  0  0  0  0  0  0  0  0  0  0
   -3.8101   -0.2371  -13.3735 C   0  0  0  0  0  0  0  0  0  0  0  0
   -3.9234   -1.3625  -14.2006 C   0  0  0  0  0  0  0  0  0  0  0  0
   -5.2367   -1.5553  -14.4746 N   0  0  0  0  0  0  0  0  0  0  0  0
   -5.9723   -0.5554  -13.8300 N   0  0  0  0  0  0  0  0  0  0  0  0
   -7.3381   -0.3191  -13.8108 C   0  0  0  0  0  0  0  0  0  0  0  0
   -7.8234    0.7712  -13.0774 C   0  0  0  0  0  0  0  0  0  0  0  0
   -6.9142    1.5885  -12.3901 C   0  0  0  0  0  0  0  0  0  0  0  0
   -5.5999    1.3136  -12.4447 N   0  0  0  0  0  0  0  0  0  0  0  0
   -5.1368    0.2361  -13.1637 C   0  0  0  0  0  0  0  0  0  0  0  0
   -7.3583    2.7010  -11.6228 N   0  0  0  0  0  0  0  0  0  0  0  0
   -6.8537    2.8808  -10.2906 C   0  0  0  0  0  0  0  0  0  0  0  0
   -5.3563    3.1628  -10.3213 C   0  0  0  0  0  0  0  0  0  0  0  0
   -4.9600    3.6463   -9.0431 O   0  0  0  0  0  0  0  0  0  0  0  0
   -3.6364    3.2503   -8.6866 C   0  0  0  0  0  0  0  0  0  0  0  0
   -2.7546    3.3499   -9.9261 C   0  0  0  0  0  0  0  0  0  0  0  0
   -1.7270    2.3655   -9.8748 O   0  0  0  0  0  0  0  0  0  0  0  0
  1  2  1  0  0  0  0
  2  3  1  0  0  0  0
  3  4  2  0  0  0  0
  4  5  1  0  0  0  0
  5  6  2  0  0  0  0
  2  7  2  0  0  0  0
  6  7  1  0  0  0  0
  6  8  1  0  0  0  0
  8  9  1  0  0  0  0
  9 10  2  0  0  0  0
 10 11  1  0  0  0  0
 11 12  1  0  0  0  0
 12 13  2  0  0  0  0
 13 14  1  0  0  0  0
 14 15  2  0  0  0  0
  8 16  2  0  0  0  0
 11 16  1  0  0  0  0
 15 16  1  0  0  0  0
 14 17  1  0  0  0  0
 17 18  1  0  0  0  0
 18 19  1  0  0  0  0
 19 20  1  0  0  0  0
 20 21  1  0  0  0  0
 21 22  1  0  0  0  0
  4 23  1  0  0  0  0
 22 23  1  0  0  0  0
M  END
$$$$
