
     RDKit          3D

 47 50  0  0  0  0  0  0  0  0999 V2000
    1.9820   -0.0420  -12.6260 C   0  0  0  0  0  0  0  0  0  0  0  0
    1.1020    0.7970  -11.8410 N   0  0  0  0  0  0  0  0  0  0  0  0
    0.5880    1.8980  -12.6120 C   0  0  0  0  0  0  0  0  0  0  0  0
   -0.7560    2.4030  -12.0830 C   0  0  0  0  0  0  0  0  0  0  0  0
   -1.7990    1.3860  -12.2060 C   0  0  0  0  0  0  0  0  0  0  0  0
   -3.0280    1.5000  -11.4620 C   0  0  0  0  0  0  0  0  0  0  0  0
   -4.0920    0.7140  -11.9760 C   0  0  0  0  0  0  0  0  0  0  0  0
   -3.9260   -0.0380  -13.1440 O   0  0  0  0  0  1  0  0  0  0  0  0
   -5.3090    0.6460  -11.3760 C   0  0  0  0  0  0  0  0  0  0  0  0
   -5.5550    1.3660  -10.2100 C   0  0  0  0  0  0  0  0  0  0  0  0
   -6.8050    1.2380   -9.6760 O   0  0  0  0  0  0  0  0  0  0  0  0
   -4.5500    2.1250   -9.7050 C   0  0  0  0  0  0  0  0  0  0  0  0
   -4.7590    2.8370   -8.5600 C   0  0  0  0  0  0  0  0  0  0  0  0
   -5.8610    2.8400   -7.9190 O   0  0  0  0  0  0  0  0  0  0  0  0
   -3.7510    3.6060   -8.0350 C   0  0  0  0  0  0  0  0  0  0  0  0
   -2.5130    3.6450   -8.6980 C   0  0  0  0  0  0  0  0  0  0  0  0
   -1.5230    4.5060   -8.0530 C   0  0  0  0  0  0  0  0  0  0  0  0
   -1.0460    4.1470   -6.7810 C   0  0  0  0  0  0  0  0  0  0  0  0
   -0.1710    4.9360   -6.0810 C   0  0  0  0  0  0  0  0  0  0  0  0
    0.2900    6.1350   -6.5990 C   0  0  0  0  0  0  0  0  0  0  0  0
   -0.1550    6.5090   -7.8280 C   0  0  0  0  0  0  0  0  0  0  0  0
   -1.0550    5.7010   -8.5460 C   0  0  0  0  0  0  0  0  0  0  0  0
   -1.6110    6.3470  -10.0600 Cl  0  0  0  0  0  0  0  0  0  0  0  0
   -2.3810    2.9450   -9.7810 O   0  0  0  0  0  0  0  0  0  0  0  0
   -3.3100    2.1930  -10.3200 C   0  0  0  0  0  0  0  0  0  0  0  0
   -1.2070   -0.0330  -11.9600 C   0  0  0  0  0  0  0  0  0  0  0  0
   -0.8990   -0.6620  -13.1560 O   0  0  0  0  0  0  0  0  0  0  0  0
    0.0730    0.0610  -11.1580 C   0  0  0  0  0  0  0  0  0  0  0  0
    2.6121   -0.6427  -11.9536 H   0  0  0  0  0  0  0  0  0  0  0  0
    1.3816   -0.7105  -13.2605 H   0  0  0  0  0  0  0  0  0  0  0  0
    2.6211    0.5896  -13.2605 H   0  0  0  0  0  0  0  0  0  0  0  0
    1.3142    2.7234  -12.5768 H   0  0  0  0  0  0  0  0  0  0  0  0
    0.4314    1.5427  -13.6412 H   0  0  0  0  0  0  0  0  0  0  0  0
   -0.6437    2.6728  -11.0225 H   0  0  0  0  0  0  0  0  0  0  0  0
   -1.0549    3.2766  -12.6809 H   0  0  0  0  0  0  0  0  0  0  0  0
   -2.1272    1.5721  -13.2393 H   0  0  0  0  0  0  0  0  0  0  0  0
   -6.1018    0.0207  -11.8124 H   0  0  0  0  0  0  0  0  0  0  0  0
   -7.7070    1.4090   -9.9440 H   0  0  0  0  0  0  0  0  0  0  0  0
   -3.9095    4.1818   -7.1112 H   0  0  0  0  0  0  0  0  0  0  0  0
   -1.3860    3.2019   -6.3325 H   0  0  0  0  0  0  0  0  0  0  0  0
    0.1721    4.6105   -5.0878 H   0  0  0  0  0  0  0  0  0  0  0  0
    0.9935    6.7643   -6.0342 H   0  0  0  0  0  0  0  0  0  0  0  0
    0.1933    7.4558   -8.2665 H   0  0  0  0  0  0  0  0  0  0  0  0
   -1.9697   -0.6091  -11.4156 H   0  0  0  0  0  0  0  0  0  0  0  0
   -1.0480   -0.0750  -13.9360 H   0  0  0  0  0  0  0  0  0  0  0  0
   -0.1453    0.5636  -10.2042 H   0  0  0  0  0  0  0  0  0  0  0  0
    0.4439   -0.9628  -11.0023 H   0  0  0  0  0  0  0  0  0  0  0  0
  1  2  1  0
  2  3  1  0
  3  4  1  0
  4  5  1  0
  5  6  1  0
  6  7  2  0
  7  8  1  0
  7  9  1  0
  9 10  2  0
 10 11  1  0
 10 12  1  0
 12 13  1  0
 13 14  2  0
 13 15  1  0
 15 16  2  0
 16 17  1  0
 17 18  2  0
 18 19  1  0
 19 20  2  0
 20 21  1  0
 21 22  2  0
 22 23  1  0
 16 24  1  0
 24 25  1  0
  5 26  1  0
 26 27  1  0
 26 28  1  0
 28  2  1  0
 25  6  1  0
 25 12  2  0
 22 17  1  0
  1 29  1  0
  1 30  1  0
  1 31  1  0
  3 32  1  0
  3 33  1  0
  4 34  1  0
  4 35  1  0
  5 36  1  0
  9 37  1  0
 11 38  1  0
 15 39  1  0
 18 40  1  0
 19 41  1  0
 20 42  1  0
 21 43  1  0
 26 44  1  0
 27 45  1  0
 28 46  1  0
 28 47  1  0
M  CHG  1   8  -1
M  END
