
     RDKit          3D

 49 51  0  0  0  0  0  0  0  0999 V2000
    0.2930    7.0620   -9.9410 C   0  0  0  0  0  0  0  0  0  0  0  0
   -0.7860    6.7270   -9.1510 O   0  0  0  0  0  0  0  0  0  0  0  0
   -1.1270    5.4060   -8.9150 C   0  0  0  0  0  0  0  0  0  0  0  0
   -1.6020    4.5580   -9.9050 C   0  0  0  0  0  0  0  0  0  0  0  0
   -1.9430    3.2390   -9.6980 C   0  0  0  0  0  0  0  0  0  0  0  0
   -2.4340    2.3170  -10.7020 C   0  0  0  0  0  0  0  0  0  0  0  0
   -3.8270    2.1850  -10.7470 C   0  0  0  0  0  0  0  0  0  0  0  0
   -4.3570    1.3550  -11.6500 N   0  0  0  0  0  0  0  0  0  0  0  0
   -5.8310    1.2180  -11.6370 C   0  0  0  0  0  0  0  0  0  0  0  0
   -3.6390    0.6320  -12.5270 C   0  0  0  0  0  0  0  0  0  0  0  0
   -4.1600   -0.1340  -13.3620 O   0  0  0  0  0  0  0  0  0  0  0  0
   -2.2520    0.7430  -12.5010 C   0  0  0  0  0  0  0  0  0  0  0  0
   -1.5010    0.0030  -13.3900 C   0  0  0  0  0  0  0  0  0  0  0  0
   -0.1490    0.1130  -13.3450 N   0  0  0  0  0  0  0  0  0  0  0  0
    0.4410    0.9250  -12.4550 C   0  0  0  0  0  0  0  0  0  0  0  0
   -0.2780    1.6760  -11.5620 C   0  0  0  0  0  0  0  0  0  0  0  0
   -1.6650    1.5960  -11.5760 C   0  0  0  0  0  0  0  0  0  0  0  0
   -1.7940    2.7500   -8.4060 C   0  0  0  0  0  0  0  0  0  0  0  0
   -2.1430    1.4100   -8.1340 O   0  0  0  0  0  0  0  0  0  0  0  0
   -1.2310    0.3560   -8.1540 C   0  0  0  0  0  0  0  0  0  0  0  0
   -1.3230    3.5830   -7.4140 C   0  0  0  0  0  0  0  0  0  0  0  0
   -0.9740    4.9120   -7.6120 C   0  0  0  0  0  0  0  0  0  0  0  0
   -0.6100    5.8140   -6.4990 C   0  0  0  0  0  0  0  0  0  0  0  0
    0.8660    5.9290   -6.4100 N   0  0  0  0  0  0  0  0  0  0  0  0
    1.3840    5.3650   -5.1710 C   0  0  0  0  0  0  0  0  0  0  0  0
    1.0430    7.4340   -6.2140 C   0  0  0  0  0  0  0  0  0  0  0  0
    1.1475    7.3273   -9.3012 H   0  0  0  0  0  0  0  0  0  0  0  0
    0.5625    6.2052  -10.5761 H   0  0  0  0  0  0  0  0  0  0  0  0
    0.0299    7.9207  -10.5761 H   0  0  0  0  0  0  0  0  0  0  0  0
   -1.7136    4.9649  -10.9209 H   0  0  0  0  0  0  0  0  0  0  0  0
   -4.4693    2.7506  -10.0560 H   0  0  0  0  0  0  0  0  0  0  0  0
   -6.1870    1.1849  -10.5967 H   0  0  0  0  0  0  0  0  0  0  0  0
   -6.2837    2.0779  -12.1523 H   0  0  0  0  0  0  0  0  0  0  0  0
   -6.1175    0.2894  -12.1523 H   0  0  0  0  0  0  0  0  0  0  0  0
   -1.9870   -0.6617  -14.1194 H   0  0  0  0  0  0  0  0  0  0  0  0
    1.5390    0.9903  -12.4415 H   0  0  0  0  0  0  0  0  0  0  0  0
    0.2357    2.3327  -10.8445 H   0  0  0  0  0  0  0  0  0  0  0  0
   -0.9814    0.0675   -7.1223 H   0  0  0  0  0  0  0  0  0  0  0  0
   -1.6752   -0.5033   -8.6778 H   0  0  0  0  0  0  0  0  0  0  0  0
   -0.3168    0.6721   -8.6778 H   0  0  0  0  0  0  0  0  0  0  0  0
   -1.2169    3.1683   -6.4007 H   0  0  0  0  0  0  0  0  0  0  0  0
   -1.0440    6.8088   -6.6779 H   0  0  0  0  0  0  0  0  0  0  0  0
   -1.0007    5.4043   -5.5559 H   0  0  0  0  0  0  0  0  0  0  0  0
    0.9177    5.8728   -4.3139 H   0  0  0  0  0  0  0  0  0  0  0  0
    1.1513    4.2906   -5.1317 H   0  0  0  0  0  0  0  0  0  0  0  0
    2.4743    5.5057   -5.1317 H   0  0  0  0  0  0  0  0  0  0  0  0
    1.0699    7.6630   -5.1384 H   0  0  0  0  0  0  0  0  0  0  0  0
    1.9852    7.7563   -6.6812 H   0  0  0  0  0  0  0  0  0  0  0  0
    0.2012    7.9661   -6.6812 H   0  0  0  0  0  0  0  0  0  0  0  0
  1  2  1  0
  2  3  1  0
  3  4  2  0
  4  5  1  0
  5  6  1  0
  6  7  2  0
  7  8  1  0
  8  9  1  0
  8 10  1  0
 10 11  2  0
 10 12  1  0
 12 13  2  0
 13 14  1  0
 14 15  2  0
 15 16  1  0
 16 17  2  0
  5 18  2  0
 18 19  1  0
 19 20  1  0
 18 21  1  0
 21 22  2  0
 22 23  1  0
 23 24  1  0
 24 25  1  0
 24 26  1  0
 22  3  1  0
 17  6  1  0
 17 12  1  0
  1 27  1  0
  1 28  1  0
  1 29  1  0
  4 30  1  0
  7 31  1  0
  9 32  1  0
  9 33  1  0
  9 34  1  0
 13 35  1  0
 15 36  1  0
 16 37  1  0
 20 38  1  0
 20 39  1  0
 20 40  1  0
 21 41  1  0
 23 42  1  0
 23 43  1  0
 25 44  1  0
 25 45  1  0
 25 46  1  0
 26 47  1  0
 26 48  1  0
 26 49  1  0
M  END
