obj01
  PyMOL3.1          3D                             0

 53 56  0  0  0  0  0  0  0  0999 V2000
   -8.4256    0.5263  -13.1376 C   0  0  0  0  0  0  0  0  0  0  0  0
   -9.7869    0.4256  -13.4169 C   0  0  0  0  0  0  0  0  0  0  0  0
  -10.6892    1.3267  -12.8445 C   0  0  0  0  0  0  0  0  0  0  0  0
  -10.2397    2.3302  -11.9897 C   0  0  0  0  0  0  0  0  0  0  0  0
   -8.8771    2.4361  -11.7128 C   0  0  0  0  0  0  0  0  0  0  0  0
   -7.9688    1.5312  -12.2893 C   0  0  0  0  0  0  0  0  0  0  0  0
   -7.5210   -0.4595  -13.7810 N   0  0  0  0  0  0  0  0  0  0  0  0
  -11.2323    3.2857  -11.4027 N   0  0  0  0  0  0  0  0  0  0  0  0
  -12.6730    3.1761  -11.6562 C   0  0  0  0  0  0  0  0  0  0  0  0
   -4.1831   -1.8661  -13.9604 C   0  0  0  0  0  0  0  0  0  0  0  0
   -3.4389   -1.0416  -13.1187 C   0  0  0  0  0  0  0  0  0  0  0  0
   -4.0869    0.0088  -12.4899 C   0  0  0  0  0  0  0  0  0  0  0  0
   -5.3919    0.1874  -12.7007 N   0  0  0  0  0  0  0  0  0  0  0  0
   -6.0791   -0.6240  -13.5122 C   0  0  0  0  0  0  0  0  0  0  0  0
   -5.4782   -1.6299  -14.1286 N   0  0  0  0  0  0  0  0  0  0  0  0
   -3.3630    0.8424  -11.6266 C   0  0  0  0  0  0  0  0  0  0  0  0
   -4.0357    1.6319  -10.7020 C   0  0  0  0  0  0  0  0  0  0  0  0
   -3.3174    2.4522   -9.8335 C   0  0  0  0  0  0  0  0  0  0  0  0
   -1.9278    2.4923   -9.8855 C   0  0  0  0  0  0  0  0  0  0  0  0
   -1.2484    1.6941  -10.8003 C   0  0  0  0  0  0  0  0  0  0  0  0
   -1.9710    0.8699  -11.6730 C   0  0  0  0  0  0  0  0  0  0  0  0
   -1.1633    3.4009   -8.9016 C   0  0  0  0  0  0  0  0  0  0  0  0
   -0.0351    3.6789   -9.1215 O   0  0  0  0  0  0  0  0  0  0  0  0
   -1.8229    3.8933   -7.6859 N   0  0  0  0  0  0  0  0  0  0  0  0
   -1.1053    4.7432   -6.7345 C   0  0  0  0  0  0  0  0  0  0  0  0
   -2.0757    5.6666   -6.0132 C   0  0  0  0  0  0  0  0  0  0  0  0
   -2.7684    6.3759   -5.4557 N   0  0  0  0  0  0  0  0  0  0  0  0
  -11.0398    4.0080  -10.1410 C   0  0  0  0  0  0  0  0  0  0  0  0
  -11.7895    5.3483  -10.1182 C   0  0  0  0  0  0  0  0  0  0  0  0
  -13.1288    5.2379  -10.4759 O   0  0  0  0  0  0  0  0  0  0  0  0
  -13.3393    4.5544  -11.6658 C   0  0  0  0  0  0  0  0  0  0  0  0
   -2.6491    3.6782   -7.5290 H   0  0  0  0  0  0  0  0  0  0  0  0
   -0.6665    4.2018   -6.1052 H   0  0  0  0  0  0  0  0  0  0  0  0
   -0.4710    5.2591   -7.1970 H   0  0  0  0  0  0  0  0  0  0  0  0
   -3.7704    2.9761   -9.2140 H   0  0  0  0  0  0  0  0  0  0  0  0
   -4.9639    1.6136  -10.6622 H   0  0  0  0  0  0  0  0  0  0  0  0
   -1.5187    0.3383  -12.2857 H   0  0  0  0  0  0  0  0  0  0  0  0
   -0.3198    1.7075  -10.8320 H   0  0  0  0  0  0  0  0  0  0  0  0
   -2.5333   -1.1924  -12.9821 H   0  0  0  0  0  0  0  0  0  0  0  0
   -3.7750   -2.5752  -14.4007 H   0  0  0  0  0  0  0  0  0  0  0  0
   -7.8737   -0.9891  -14.3725 H   0  0  0  0  0  0  0  0  0  0  0  0
  -10.0959   -0.2406  -13.9862 H   0  0  0  0  0  0  0  0  0  0  0  0
  -11.5961    1.2558  -13.0348 H   0  0  0  0  0  0  0  0  0  0  0  0
   -8.5697    3.1059  -11.1477 H   0  0  0  0  0  0  0  0  0  0  0  0
   -7.0615    1.6036  -12.1033 H   0  0  0  0  0  0  0  0  0  0  0  0
  -11.3633    3.4566   -9.4120 H   0  0  0  0  0  0  0  0  0  0  0  0
  -10.0932    4.1764  -10.0179 H   0  0  0  0  0  0  0  0  0  0  0  0
  -11.7383    5.7159   -9.2219 H   0  0  0  0  0  0  0  0  0  0  0  0
  -11.3534    5.9554  -10.7367 H   0  0  0  0  0  0  0  0  0  0  0  0
  -14.2935    4.4423  -11.7998 H   0  0  0  0  0  0  0  0  0  0  0  0
  -12.9742    5.0761  -12.3977 H   0  0  0  0  0  0  0  0  0  0  0  0
  -13.0768    2.6326  -10.9618 H   0  0  0  0  0  0  0  0  0  0  0  0
  -12.8122    2.7496  -12.5157 H   0  0  0  0  0  0  0  0  0  0  0  0
  1  2  2  0  0  0  0
  2  3  1  0  0  0  0
  3  4  2  0  0  0  0
  4  5  1  0  0  0  0
  1  6  1  0  0  0  0
  5  6  2  0  0  0  0
  1  7  1  0  0  0  0
  4  8  1  0  0  0  0
  8  9  1  0  0  0  0
 10 11  1  0  0  0  0
 11 12  2  0  0  0  0
 12 13  1  0  0  0  0
  7 14  1  0  0  0  0
 13 14  2  0  0  0  0
 10 15  2  0  0  0  0
 14 15  1  0  0  0  0
 12 16  1  0  0  0  0
 16 17  1  0  0  0  0
 17 18  2  0  0  0  0
 18 19  1  0  0  0  0
 19 20  2  0  0  0  0
 16 21  2  0  0  0  0
 20 21  1  0  0  0  0
 19 22  1  0  0  0  0
 22 23  2  0  0  0  0
 22 24  1  0  0  0  0
 24 25  1  0  0  0  0
 25 26  1  0  0  0  0
 26 27  3  0  0  0  0
  8 28  1  0  0  0  0
 28 29  1  0  0  0  0
 29 30  1  0  0  0  0
  9 31  1  0  0  0  0
 30 31  1  0  0  0  0
 24 32  1  0  0  0  0
 25 33  1  0  0  0  0
 25 34  1  0  0  0  0
 18 35  1  0  0  0  0
 17 36  1  0  0  0  0
 21 37  1  0  0  0  0
 20 38  1  0  0  0  0
 11 39  1  0  0  0  0
 10 40  1  0  0  0  0
  7 41  1  0  0  0  0
  2 42  1  0  0  0  0
  3 43  1  0  0  0  0
  5 44  1  0  0  0  0
  6 45  1  0  0  0  0
 28 46  1  0  0  0  0
 28 47  1  0  0  0  0
 29 48  1  0  0  0  0
 29 49  1  0  0  0  0
 31 50  1  0  0  0  0
 31 51  1  0  0  0  0
  9 52  1  0  0  0  0
  9 53  1  0  0  0  0
M  END
$$$$
