obj01
  PyMOL3.1          3D                             0

 32 36  0  0  0  0  0  0  0  0999 V2000
   -3.3976    4.8115   -9.0718 C   0  0  0  0  0  0  0  0  0  0  0  0
   -3.4974    3.3176   -8.8475 C   0  0  0  0  0  0  0  0  0  0  0  0
   -3.1794    2.4735  -10.0478 N   0  0  0  0  0  0  0  0  0  0  0  0
   -4.0627    1.6843  -10.7624 C   0  0  0  0  0  0  0  0  0  0  0  0
   -3.3902    1.0744  -11.7611 C   0  0  0  0  0  0  0  0  0  0  0  0
   -2.0685    1.4955  -11.6705 C   0  0  0  0  0  0  0  0  0  0  0  0
   -1.9366    2.3821  -10.6326 N   0  0  0  0  0  0  0  0  0  0  0  0
   -0.9220    1.2279  -12.4325 C   0  0  0  0  0  0  0  0  0  0  0  0
    0.3442    1.0984  -11.8422 C   0  0  0  0  0  0  0  0  0  0  0  0
    1.4729    0.9085  -12.4606 N   0  0  0  0  0  0  0  0  0  0  0  0
    1.4490    0.8355  -13.8316 C   0  0  0  0  0  0  0  0  0  0  0  0
    0.2118    0.9401  -14.5685 C   0  0  0  0  0  0  0  0  0  0  0  0
   -0.9454    1.1446  -13.8827 C   0  0  0  0  0  0  0  0  0  0  0  0
   -4.0661    0.0982  -12.6791 C   0  0  0  0  0  0  0  0  0  0  0  0
   -5.3838    0.2671  -12.8595 N   0  0  0  0  0  0  0  0  0  0  0  0
   -6.0259   -0.6313  -13.6420 C   0  0  0  0  0  0  0  0  0  0  0  0
   -7.3275   -0.4840  -13.8990 N   0  0  0  0  0  0  0  0  0  0  0  0
   -8.2671    0.3641  -13.3931 C   0  0  0  0  0  0  0  0  0  0  0  0
   -8.0420    1.4271  -12.5136 C   0  0  0  0  0  0  0  0  0  0  0  0
   -9.0605    2.1817  -12.0252 C   0  0  0  0  0  0  0  0  0  0  0  0
  -10.4292    1.9495  -12.3905 C   0  0  0  0  0  0  0  0  0  0  0  0
  -10.6205    0.8761  -13.2596 C   0  0  0  0  0  0  0  0  0  0  0  0
   -9.6113    0.1463  -13.7303 C   0  0  0  0  0  0  0  0  0  0  0  0
  -11.5182    2.6608  -11.9164 N   0  0  0  0  0  0  0  0  0  0  0  0
  -12.5781    1.8861  -11.2528 C   0  0  0  0  0  0  0  0  0  0  0  0
  -13.8776    2.7297  -11.0620 C   0  0  0  0  0  0  0  0  0  0  0  0
  -13.5531    3.7833  -10.1146 N   0  0  0  0  0  0  0  0  0  0  0  0
  -12.5108    4.6451  -10.6764 C   0  0  0  0  0  0  0  0  0  0  0  0
  -11.2546    3.8480  -11.0472 C   0  0  0  0  0  0  0  0  0  0  0  0
   -5.4513   -1.7047  -14.1763 N   0  0  0  0  0  0  0  0  0  0  0  0
   -4.1608   -1.8365  -13.9640 C   0  0  0  0  0  0  0  0  0  0  0  0
   -3.4095   -0.9757  -13.1928 C   0  0  0  0  0  0  0  0  0  0  0  0
  1  2  1  0  0  0  0
  2  3  1  0  0  0  0
  3  4  1  0  0  0  0
  4  5  2  0  0  0  0
  5  6  1  0  0  0  0
  3  7  1  0  0  0  0
  6  7  2  0  0  0  0
  6  8  1  0  0  0  0
  8  9  1  0  0  0  0
  9 10  2  0  0  0  0
 10 11  1  0  0  0  0
 11 12  2  0  0  0  0
  8 13  2  0  0  0  0
 12 13  1  0  0  0  0
  5 14  1  0  0  0  0
 14 15  1  0  0  0  0
 15 16  2  0  0  0  0
 16 17  1  0  0  0  0
 17 18  1  0  0  0  0
 18 19  1  0  0  0  0
 19 20  2  0  0  0  0
 20 21  1  0  0  0  0
 21 22  2  0  0  0  0
 18 23  2  0  0  0  0
 22 23  1  0  0  0  0
 21 24  1  0  0  0  0
 24 25  1  0  0  0  0
 25 26  1  0  0  0  0
 26 27  1  0  0  0  0
 27 28  1  0  0  0  0
 24 29  1  0  0  0  0
 28 29  1  0  0  0  0
 16 30  1  0  0  0  0
 30 31  2  0  0  0  0
 14 32  2  0  0  0  0
 31 32  1  0  0  0  0
M  END
$$$$
