obj01
  PyMOL3.1          3D                             0

 35 38  0  0  0  0  0  0  0  0999 V2000
   -3.3353   -1.2541  -12.9286 C   0  0  0  0  0  0  0  0  0  0  0  0
   -4.1865   -0.0786  -12.4816 C   0  0  0  0  0  0  0  0  0  0  0  0
   -3.6302    0.9792  -11.7327 C   0  0  0  0  0  0  0  0  0  0  0  0
   -4.4405    2.0332  -11.3191 C   0  0  0  0  0  0  0  0  0  0  0  0
   -5.7793    2.0747  -11.6654 C   0  0  0  0  0  0  0  0  0  0  0  0
   -6.3400    1.0242  -12.4332 C   0  0  0  0  0  0  0  0  0  0  0  0
   -5.5765   -0.0372  -12.8422 C   0  0  0  0  0  0  0  0  0  0  0  0
   -6.2440   -1.1248  -13.6658 C   0  0  0  0  0  0  0  0  0  0  0  0
   -7.6005   -1.0244  -13.9850 N   0  0  0  0  0  0  0  0  0  0  0  0
   -8.3695    0.0850  -13.5438 C   0  0  0  0  0  0  0  0  0  0  0  0
   -7.7496    1.1170  -12.7662 N   0  0  0  0  0  0  0  0  0  0  0  0
   -5.6484   -2.1017  -14.0707 O   0  0  0  0  0  0  0  0  0  0  0  0
   -2.3121    1.0469  -11.2739 C   0  0  0  0  0  0  0  0  0  0  0  0
   -2.1635    1.1077   -9.8876 C   0  0  0  0  0  0  0  0  0  0  0  0
   -0.9007    1.1811   -9.2979 C   0  0  0  0  0  0  0  0  0  0  0  0
    0.2310    1.2097  -10.0996 C   0  0  0  0  0  0  0  0  0  0  0  0
    0.0930    1.1484  -11.5139 C   0  0  0  0  0  0  0  0  0  0  0  0
   -1.1443    1.0744  -12.0974 C   0  0  0  0  0  0  0  0  0  0  0  0
   -1.2207    1.0269  -13.5199 C   0  0  0  0  0  0  0  0  0  0  0  0
   -0.0429    1.0509  -14.2636 C   0  0  0  0  0  0  0  0  0  0  0  0
    1.1923    1.1282  -13.6178 C   0  0  0  0  0  0  0  0  0  0  0  0
    1.2433    1.1724  -12.2751 N   0  0  0  0  0  0  0  0  0  0  0  0
   -3.8159   -2.0899  -12.7564 H   0  0  0  0  0  0  0  0  0  0  0  0
   -3.1491   -1.1756  -13.8882 H   0  0  0  0  0  0  0  0  0  0  0  0
   -2.4912   -1.2549  -12.4311 H   0  0  0  0  0  0  0  0  0  0  0  0
   -4.0602    2.7504  -10.7782 H   0  0  0  0  0  0  0  0  0  0  0  0
   -6.3349    2.8247  -11.3825 H   0  0  0  0  0  0  0  0  0  0  0  0
   -7.9965   -1.6784  -14.4821 H   0  0  0  0  0  0  0  0  0  0  0  0
   -9.3171    0.1445  -13.7706 H   0  0  0  0  0  0  0  0  0  0  0  0
   -2.9585    1.0989   -9.3195 H   0  0  0  0  0  0  0  0  0  0  0  0
   -0.8143    1.2106   -8.3263 H   0  0  0  0  0  0  0  0  0  0  0  0
    1.1171    1.2727   -9.6953 H   0  0  0  0  0  0  0  0  0  0  0  0
   -2.0855    0.9789  -13.9661 H   0  0  0  0  0  0  0  0  0  0  0  0
   -0.0817    1.0128  -15.2364 H   0  0  0  0  0  0  0  0  0  0  0  0
    2.0160    1.1513  -14.1395 H   0  0  0  0  0  0  0  0  0  0  0  0
  1  2  1  0  0  0  0
  2  3  2  0  0  0  0
  3  4  1  0  0  0  0
  4  5  2  0  0  0  0
  5  6  1  0  0  0  0
  2  7  1  0  0  0  0
  6  7  2  0  0  0  0
  7  8  1  0  0  0  0
  8  9  1  0  0  0  0
  9 10  1  0  0  0  0
  6 11  1  0  0  0  0
 10 11  2  0  0  0  0
  8 12  2  0  0  0  0
  3 13  1  0  0  0  0
 13 14  1  0  0  0  0
 14 15  2  0  0  0  0
 15 16  1  0  0  0  0
 16 17  2  0  0  0  0
 13 18  2  0  0  0  0
 17 18  1  0  0  0  0
 18 19  1  0  0  0  0
 19 20  2  0  0  0  0
 20 21  1  0  0  0  0
 17 22  1  0  0  0  0
 21 22  2  0  0  0  0
  1 23  1  0  0  0  0
  1 24  1  0  0  0  0
  1 25  1  0  0  0  0
  4 26  1  0  0  0  0
  5 27  1  0  0  0  0
  9 28  1  0  0  0  0
 10 29  1  0  0  0  0
 14 30  1  0  0  0  0
 15 31  1  0  0  0  0
 16 32  1  0  0  0  0
 19 33  1  0  0  0  0
 20 34  1  0  0  0  0
 21 35  1  0  0  0  0
M  END
$$$$
