obj01
  PyMOL3.1          3D                             0

 33 38  0  0  0  0  0  0  0  0999 V2000
  -12.9356    2.7456  -10.7980 C   0  0  0  0  0  0  0  0  0  0  0  0
  -13.6138    1.8331   -9.7856 C   0  0  0  0  0  0  0  0  0  0  0  0
  -14.0209    0.6054  -10.3407 O   0  0  0  0  0  0  0  0  0  0  0  0
  -14.5673    0.7260  -11.6482 C   0  0  0  0  0  0  0  0  0  0  0  0
  -13.6474    1.3958  -12.6489 C   0  0  0  0  0  0  0  0  0  0  0  0
  -12.6378    2.1907  -12.0647 N   0  0  0  0  0  0  0  0  0  0  0  0
  -11.2791    1.7785  -12.3037 C   0  0  0  0  0  0  0  0  0  0  0  0
  -10.9897    1.0518  -13.4600 C   0  0  0  0  0  0  0  0  0  0  0  0
   -9.6939    0.6296  -13.7193 C   0  0  0  0  0  0  0  0  0  0  0  0
   -8.6776    0.9438  -12.8313 C   0  0  0  0  0  0  0  0  0  0  0  0
   -8.9712    1.6116  -11.6431 C   0  0  0  0  0  0  0  0  0  0  0  0
  -10.2641    2.0512  -11.3891 C   0  0  0  0  0  0  0  0  0  0  0  0
   -7.3883    0.4161  -13.0611 N   0  0  0  0  0  0  0  0  0  0  0  0
   -7.3724   -0.8405  -13.6935 C   0  0  0  0  0  0  0  0  0  0  0  0
   -6.1708   -1.5523  -13.9615 N   0  0  0  0  0  0  0  0  0  0  0  0
   -4.9421   -0.9813  -13.5432 C   0  0  0  0  0  0  0  0  0  0  0  0
   -3.7548   -1.7269  -13.8314 C   0  0  0  0  0  0  0  0  0  0  0  0
   -2.5384   -1.1872  -13.4436 C   0  0  0  0  0  0  0  0  0  0  0  0
   -2.4919    0.0637  -12.8007 C   0  0  0  0  0  0  0  0  0  0  0  0
   -3.6805    0.7574  -12.5300 C   0  0  0  0  0  0  0  0  0  0  0  0
   -4.9288    0.2324  -12.9162 C   0  0  0  0  0  0  0  0  0  0  0  0
   -6.1999    0.9906  -12.6365 C   0  0  0  0  0  0  0  0  0  0  0  0
   -6.2307    2.0710  -12.0638 O   0  0  0  0  0  0  0  0  0  0  0  0
   -1.2503    0.5796  -12.3966 C   0  0  0  0  0  0  0  0  0  0  0  0
   -0.2252    0.6377  -13.3277 C   0  0  0  0  0  0  0  0  0  0  0  0
    1.0456    1.1342  -12.9704 C   0  0  0  0  0  0  0  0  0  0  0  0
    1.2409    1.5383  -11.6986 N   0  0  0  0  0  0  0  0  0  0  0  0
    0.2536    1.4813  -10.7143 C   0  0  0  0  0  0  0  0  0  0  0  0
    0.5325    1.9141   -9.3721 C   0  0  0  0  0  0  0  0  0  0  0  0
   -0.4426    1.8839   -8.3716 C   0  0  0  0  0  0  0  0  0  0  0  0
   -1.7149    1.3834   -8.6539 C   0  0  0  0  0  0  0  0  0  0  0  0
   -1.9597    0.9481   -9.9716 C   0  0  0  0  0  0  0  0  0  0  0  0
   -0.9869    1.0055  -11.0269 C   0  0  0  0  0  0  0  0  0  0  0  0
  1  2  1  0  0  0  0
  2  3  1  0  0  0  0
  3  4  1  0  0  0  0
  4  5  1  0  0  0  0
  1  6  1  0  0  0  0
  5  6  1  0  0  0  0
  6  7  1  0  0  0  0
  7  8  2  0  0  0  0
  8  9  1  0  0  0  0
  9 10  2  0  0  0  0
 10 11  1  0  0  0  0
  7 12  1  0  0  0  0
 11 12  2  0  0  0  0
 10 13  1  0  0  0  0
 13 14  1  0  0  0  0
 14 15  2  0  0  0  0
 15 16  1  0  0  0  0
 16 17  1  0  0  0  0
 17 18  2  0  0  0  0
 18 19  1  0  0  0  0
 19 20  2  0  0  0  0
 16 21  2  0  0  0  0
 20 21  1  0  0  0  0
 13 22  1  0  0  0  0
 21 22  1  0  0  0  0
 22 23  2  0  0  0  0
 19 24  1  0  0  0  0
 24 25  1  0  0  0  0
 25 26  2  0  0  0  0
 26 27  1  0  0  0  0
 27 28  2  0  0  0  0
 28 29  1  0  0  0  0
 29 30  2  0  0  0  0
 30 31  1  0  0  0  0
 31 32  2  0  0  0  0
 24 33  2  0  0  0  0
 28 33  1  0  0  0  0
 32 33  1  0  0  0  0
M  END
$$$$
