obj01
  PyMOL3.1          3D                             0

 23 26  0  0  0  0  0  0  0  0999 V2000
   -1.7936    1.1001   -8.6262 C   0  0  0  0  0  0  0  0  0  0  0  0
   -0.1791    0.5503  -13.3852 C   0  0  0  0  0  0  0  0  0  0  0  0
    0.0011    1.0752  -12.0859 C   0  0  0  0  0  0  0  0  0  0  0  0
   -1.4289    0.0322  -13.7741 C   0  0  0  0  0  0  0  0  0  0  0  0
   -7.5177    0.9485  -12.3521 C   0  0  0  0  0  0  0  0  0  0  0  0
   -7.2802   -0.1340  -13.1672 C   0  0  0  0  0  0  0  0  0  0  0  0
   -4.0833   -1.4677  -14.0198 C   0  0  0  0  0  0  0  0  0  0  0  0
   -2.2855    0.5997  -11.5889 C   0  0  0  0  0  0  0  0  0  0  0  0
   -4.4370    3.8623   -8.3564 C   0  0  0  0  0  0  0  0  0  0  0  0
   -5.8429    3.3299   -8.1343 C   0  0  0  0  0  0  0  0  0  0  0  0
   -5.4954    3.6341  -10.7212 C   0  0  0  0  0  0  0  0  0  0  0  0
   -0.9006    1.6498   -9.7328 C   0  0  0  0  0  0  0  0  0  0  0  0
   -1.0594    1.1011  -11.1896 C   0  0  0  0  0  0  0  0  0  0  0  0
   -2.4890    0.0383  -12.8534 C   0  0  0  0  0  0  0  0  0  0  0  0
   -6.4108    1.6026  -11.7940 C   0  0  0  0  0  0  0  0  0  0  0  0
   -3.7483   -0.4368  -13.2194 C   0  0  0  0  0  0  0  0  0  0  0  0
   -5.9692   -0.5426  -13.3906 C   0  0  0  0  0  0  0  0  0  0  0  0
   -5.5798    4.2711   -9.3178 C   0  0  0  0  0  0  0  0  0  0  0  0
   -5.4192   -1.5441  -14.0881 N   0  0  0  0  0  0  0  0  0  0  0  0
   -5.1625    1.1570  -12.0766 N   0  0  0  0  0  0  0  0  0  0  0  0
   -6.5697    2.6678  -10.9689 N   0  0  0  0  0  0  0  0  0  0  0  0
   -4.9308    0.1654  -12.7867 N   0  0  0  0  0  0  0  0  0  0  0  0
   -0.0328    2.4750   -9.4366 O   0  0  0  0  0  0  0  0  0  0  0  0
  2  3  1  0  0  0  0
  2  4  2  0  0  0  0
  5  6  2  0  0  0  0
  9 10  1  0  0  0  0
  1 12  1  0  0  0  0
  3 13  2  0  0  0  0
  8 13  1  0  0  0  0
 12 13  1  0  0  0  0
  4 14  1  0  0  0  0
  8 14  2  0  0  0  0
  5 15  1  0  0  0  0
  7 16  2  0  0  0  0
 14 16  1  0  0  0  0
  6 17  1  0  0  0  0
  9 18  1  0  0  0  0
 10 18  1  0  0  0  0
 11 18  1  0  0  0  0
  7 19  1  0  0  0  0
 17 19  2  0  0  0  0
 15 20  2  0  0  0  0
 11 21  1  0  0  0  0
 15 21  1  0  0  0  0
 16 22  1  0  0  0  0
 17 22  1  0  0  0  0
 20 22  1  0  0  0  0
 12 23  2  0  0  0  0
M  END
$$$$
