
     RDKit          3D

 38 40  0  0  0  0  0  0  0  0999 V2000
    1.3580    6.2930   -4.6620 N   0  0  0  0  0  2  0  0  0  0  0  0
    0.3550    6.9270   -5.9170 S   0  0  0  0  0  6  0  0  0  0  0  0
    1.2240    7.8120   -6.7760 O   0  0  0  0  0  0  0  0  0  0  0  0
   -0.7020    7.8120   -5.3120 O   0  0  0  0  0  0  0  0  0  0  0  0
   -0.4180    5.6720   -6.8300 C   0  0  0  0  0  0  0  0  0  0  0  0
   -0.7070    5.8400   -8.1590 C   0  0  0  0  0  0  0  0  0  0  0  0
   -1.3310    4.8360   -8.9150 C   0  0  0  0  0  0  0  0  0  0  0  0
   -1.6830    3.6490   -8.3710 C   0  0  0  0  0  0  0  0  0  0  0  0
   -2.3100    2.5820   -9.0410 N   0  0  0  0  0  0  0  0  0  0  0  0
   -3.7120    2.4360   -9.1980 C   0  0  0  0  0  0  0  0  0  0  0  0
   -4.7220    2.9520   -8.5190 N   0  0  0  0  0  0  0  0  0  0  0  0
   -5.8720    2.5300   -9.0350 C   0  0  0  0  0  0  0  0  0  0  0  0
   -7.1360    2.8870   -8.5150 N   0  0  0  0  0  0  0  0  0  0  0  0
   -5.6130    1.7230  -10.0710 N   0  0  0  0  0  0  0  0  0  0  0  0
   -6.5100    1.0570  -10.9410 C   0  0  0  0  0  0  0  0  0  0  0  0
   -7.7430    0.9720  -10.6200 O   0  0  0  0  0  0  0  0  0  0  0  0
   -6.1130    0.4540  -12.1960 C   0  0  0  0  0  0  0  0  0  0  0  0
   -6.2200   -0.9050  -12.3930 C   0  0  0  0  0  0  0  0  0  0  0  0
   -6.7670   -1.7120  -11.4130 F   0  0  0  0  0  0  0  0  0  0  0  0
   -5.8070   -1.4550  -13.5860 C   0  0  0  0  0  0  0  0  0  0  0  0
   -5.2900   -0.6660  -14.5840 C   0  0  0  0  0  0  0  0  0  0  0  0
   -5.1850    0.7030  -14.3800 C   0  0  0  0  0  0  0  0  0  0  0  0
   -5.5940    1.2500  -13.1980 C   0  0  0  0  0  0  0  0  0  0  0  0
   -5.4900    2.6080  -12.9970 F   0  0  0  0  0  0  0  0  0  0  0  0
   -4.3050    1.6700  -10.1650 N   0  0  0  0  0  0  0  0  0  0  0  0
   -1.3920    3.4670   -7.0130 C   0  0  0  0  0  0  0  0  0  0  0  0
   -0.7800    4.4530   -6.2800 C   0  0  0  0  0  0  0  0  0  0  0  0
    2.1940    6.9100   -4.4880 H   0  0  0  0  0  0  0  0  0  0  0  0
   -0.4421    6.7894   -8.6473 H   0  0  0  0  0  0  0  0  0  0  0  0
   -1.5396    5.0195   -9.9793 H   0  0  0  0  0  0  0  0  0  0  0  0
   -1.7180    1.8190   -9.4670 H   0  0  0  0  0  0  0  0  0  0  0  0
   -7.2360    3.1150   -7.5150 H   0  0  0  0  0  0  0  0  0  0  0  0
   -7.9520    2.9190   -9.1380 H   0  0  0  0  0  0  0  0  0  0  0  0
   -5.8923   -2.5406  -13.7416 H   0  0  0  0  0  0  0  0  0  0  0  0
   -4.9629   -1.1137  -15.5340 H   0  0  0  0  0  0  0  0  0  0  0  0
   -4.7723    1.3470  -15.1706 H   0  0  0  0  0  0  0  0  0  0  0  0
   -1.6585    2.5176   -6.5256 H   0  0  0  0  0  0  0  0  0  0  0  0
   -0.5691    4.2685   -5.2163 H   0  0  0  0  0  0  0  0  0  0  0  0
  1  2  1  0
  2  3  2  0
  2  4  2  0
  2  5  1  0
  5  6  2  0
  6  7  1  0
  7  8  2  0
  8  9  1  0
  9 10  1  0
 10 11  1  0
 11 12  2  0
 12 13  1  0
 12 14  1  0
 14 15  1  0
 15 16  2  0
 15 17  1  0
 17 18  2  0
 18 19  1  0
 18 20  1  0
 20 21  2  0
 21 22  1  0
 22 23  2  0
 23 24  1  0
 14 25  1  0
  8 26  1  0
 26 27  2  0
 27  5  1  0
 25 10  2  0
 23 17  1  0
  1 28  1  0
  6 29  1  0
  7 30  1  0
  9 31  1  0
 13 32  1  0
 13 33  1  0
 20 34  1  0
 21 35  1  0
 22 36  1  0
 26 37  1  0
 27 38  1  0
M  CHG  1   1  -1
M  END
