obj01
  PyMOL3.1          3D                             0

 78 83  0  0  0  0  0  0  0  0999 V2000
  -13.2885    5.0347  -15.0756 C   0  0  0  0  0  0  0  0  0  0  0  0
  -13.1632    4.7055  -13.5747 C   0  0  0  0  0  0  0  0  0  0  0  0
  -13.4899    3.3347  -13.3095 O   0  0  0  0  0  0  0  0  0  0  0  0
  -12.9212    2.7220  -12.1391 C   0  0  0  0  0  0  0  0  0  0  0  0
  -11.3660    2.2591  -12.3382 C   0  0  0  0  0  0  0  0  0  0  0  0
  -10.3187    2.8176  -11.5868 C   0  0  0  0  0  0  0  0  0  0  0  0
   -9.0274    2.3366  -11.8265 C   0  0  0  0  0  0  0  0  0  0  0  0
   -8.7947    1.3510  -12.7807 C   0  0  0  0  0  0  0  0  0  0  0  0
   -7.4807    0.8581  -12.9317 C   0  0  0  0  0  0  0  0  0  0  0  0
   -6.2889    1.3925  -12.4026 C   0  0  0  0  0  0  0  0  0  0  0  0
   -5.2591    0.4553  -12.7740 C   0  0  0  0  0  0  0  0  0  0  0  0
   -3.8410    0.4670  -12.5279 C   0  0  0  0  0  0  0  0  0  0  0  0
   -3.2010    1.5755  -11.8035 N   0  0  0  0  0  0  0  0  0  0  0  0
   -1.7058    1.6944  -11.8392 C   0  0  0  0  0  0  0  0  0  0  0  0
   -1.0388    1.0203  -10.6150 C   0  0  0  0  0  0  0  0  0  0  0  0
   -1.5875    1.6991   -9.4922 N   0  0  0  0  0  0  0  0  0  0  0  0
   -0.8334    2.7149   -8.7806 C   0  0  0  0  0  0  0  0  0  0  0  0
    0.3066    2.9037   -9.1103 O   0  0  0  0  0  0  0  0  0  0  0  0
   -1.5015    3.4739   -7.6341 C   0  0  0  0  0  0  0  0  0  0  0  0
   -1.4731    4.9914   -7.8467 C   0  0  0  0  0  0  0  0  0  0  0  0
   -0.6422    4.3551   -6.7232 C   0  0  0  0  0  0  0  0  0  0  0  0
   -2.9655    1.3821   -9.2803 C   0  0  0  0  0  0  0  0  0  0  0  0
   -3.7316    2.0164  -10.4512 C   0  0  0  0  0  0  0  0  0  0  0  0
   -3.0751   -0.5851  -13.0306 C   0  0  0  0  0  0  0  0  0  0  0  0
   -3.7140   -1.6318  -13.7130 C   0  0  0  0  0  0  0  0  0  0  0  0
   -5.0332   -1.6025  -13.9135 N   0  0  0  0  0  0  0  0  0  0  0  0
   -5.8030   -0.5471  -13.4224 N   0  0  0  0  0  0  0  0  0  0  0  0
   -7.1450   -0.3638  -13.5403 C   0  0  0  0  0  0  0  0  0  0  0  0
   -9.8097    0.8100  -13.4730 N   0  0  0  0  0  0  0  0  0  0  0  0
  -11.0809    1.2403  -13.2589 C   0  0  0  0  0  0  0  0  0  0  0  0
  -13.0514    3.6434  -11.0040 C   0  0  0  0  0  0  0  0  0  0  0  0
  -14.4368    3.5164  -10.2941 C   0  0  0  0  0  0  0  0  0  0  0  0
  -15.4482    2.8504  -11.0290 N   0  0  0  0  0  0  0  0  0  0  0  0
  -16.5039    2.9074  -10.3847 C   0  0  0  0  0  0  0  0  0  0  0  0
  -17.5604    1.7919  -10.6004 C   0  0  0  0  0  0  0  0  0  0  0  0
  -17.1907    4.2655  -10.7681 C   0  0  0  0  0  0  0  0  0  0  0  0
  -15.0351    1.5420  -11.3528 C   0  0  0  0  0  0  0  0  0  0  0  0
  -13.6248    1.4219  -11.9888 C   0  0  0  0  0  0  0  0  0  0  0  0
  -12.7615    4.4369  -15.5722 H   0  0  0  0  0  0  0  0  0  0  0  0
  -14.1860    4.9546  -15.3397 H   0  0  0  0  0  0  0  0  0  0  0  0
  -12.9943    5.9132  -15.2289 H   0  0  0  0  0  0  0  0  0  0  0  0
  -12.2797    4.8667  -13.3006 H   0  0  0  0  0  0  0  0  0  0  0  0
  -13.7501    5.2574  -13.0922 H   0  0  0  0  0  0  0  0  0  0  0  0
  -10.4775    3.4803  -10.9555 H   0  0  0  0  0  0  0  0  0  0  0  0
   -8.3139    2.6806  -11.3410 H   0  0  0  0  0  0  0  0  0  0  0  0
   -6.1886    2.1791  -11.9188 H   0  0  0  0  0  0  0  0  0  0  0  0
   -1.4733    2.6041  -11.8496 H   0  0  0  0  0  0  0  0  0  0  0  0
   -1.3869    1.2861  -12.6224 H   0  0  0  0  0  0  0  0  0  0  0  0
   -0.1061    1.1245  -10.6442 H   0  0  0  0  0  0  0  0  0  0  0  0
   -1.2457    0.1049  -10.5848 H   0  0  0  0  0  0  0  0  0  0  0  0
   -2.2268    3.0932   -7.1750 H   0  0  0  0  0  0  0  0  0  0  0  0
   -2.2419    5.4541   -7.5700 H   0  0  0  0  0  0  0  0  0  0  0  0
   -0.9863    5.2872   -8.5932 H   0  0  0  0  0  0  0  0  0  0  0  0
   -0.9723    4.4822   -5.8534 H   0  0  0  0  0  0  0  0  0  0  0  0
    0.2834    4.3153   -6.8766 H   0  0  0  0  0  0  0  0  0  0  0  0
   -3.2618    1.7388   -8.4638 H   0  0  0  0  0  0  0  0  0  0  0  0
   -3.0902    0.4514   -9.2735 H   0  0  0  0  0  0  0  0  0  0  0  0
   -3.6594    2.9505  -10.3885 H   0  0  0  0  0  0  0  0  0  0  0  0
   -4.6361    1.7724  -10.3876 H   0  0  0  0  0  0  0  0  0  0  0  0
   -2.1534   -0.5928  -12.9152 H   0  0  0  0  0  0  0  0  0  0  0  0
   -3.2153   -2.3498  -14.0272 H   0  0  0  0  0  0  0  0  0  0  0  0
   -7.7390   -0.9469  -13.9528 H   0  0  0  0  0  0  0  0  0  0  0  0
  -11.7776    0.8503  -13.7337 H   0  0  0  0  0  0  0  0  0  0  0  0
  -12.3513    3.4493  -10.3613 H   0  0  0  0  0  0  0  0  0  0  0  0
  -12.9464    4.5527  -11.3252 H   0  0  0  0  0  0  0  0  0  0  0  0
  -14.3036    3.0331   -9.4637 H   0  0  0  0  0  0  0  0  0  0  0  0
  -14.7531    4.4113  -10.0941 H   0  0  0  0  0  0  0  0  0  0  0  0
  -16.2060    2.8029   -9.4676 H   0  0  0  0  0  0  0  0  0  0  0  0
  -17.2285    0.9570  -10.2348 H   0  0  0  0  0  0  0  0  0  0  0  0
  -18.3849    2.0361  -10.1515 H   0  0  0  0  0  0  0  0  0  0  0  0
  -17.7287    1.6848  -11.5497 H   0  0  0  0  0  0  0  0  0  0  0  0
  -18.1393    4.2148  -10.5717 H   0  0  0  0  0  0  0  0  0  0  0  0
  -16.7923    4.9856  -10.2547 H   0  0  0  0  0  0  0  0  0  0  0  0
  -17.0652    4.4354  -11.7148 H   0  0  0  0  0  0  0  0  0  0  0  0
  -15.6779    1.1708  -11.9773 H   0  0  0  0  0  0  0  0  0  0  0  0
  -15.0423    1.0154  -10.5382 H   0  0  0  0  0  0  0  0  0  0  0  0
  -13.0843    0.8433  -11.4285 H   0  0  0  0  0  0  0  0  0  0  0  0
  -13.7177    1.0197  -12.8666 H   0  0  0  0  0  0  0  0  0  0  0  0
  1  2  1  0  0  0  0
  2  3  1  0  0  0  0
  3  4  1  0  0  0  0
  4  5  1  0  0  0  0
  5  6  2  0  0  0  0
  6  7  1  0  0  0  0
  7  8  2  0  0  0  0
  8  9  1  0  0  0  0
  9 10  1  0  0  0  0
 10 11  2  0  0  0  0
 11 12  1  0  0  0  0
 12 13  1  0  0  0  0
 13 14  1  0  0  0  0
 14 15  1  0  0  0  0
 15 16  1  0  0  0  0
 16 17  1  0  0  0  0
 17 18  2  0  0  0  0
 17 19  1  0  0  0  0
 19 20  1  0  0  0  0
 19 21  1  0  0  0  0
 20 21  1  0  0  0  0
 16 22  1  0  0  0  0
 13 23  1  0  0  0  0
 22 23  1  0  0  0  0
 12 24  2  0  0  0  0
 24 25  1  0  0  0  0
 25 26  2  0  0  0  0
 11 27  1  0  0  0  0
 26 27  1  0  0  0  0
  9 28  2  0  0  0  0
 27 28  1  0  0  0  0
  8 29  1  0  0  0  0
  5 30  1  0  0  0  0
 29 30  2  0  0  0  0
  4 31  1  0  0  0  0
 31 32  1  0  0  0  0
 32 33  1  0  0  0  0
 33 34  1  0  0  0  0
 34 35  1  0  0  0  0
 34 36  1  0  0  0  0
 33 37  1  0  0  0  0
  4 38  1  0  0  0  0
 37 38  1  0  0  0  0
  1 39  1  0  0  0  0
  1 40  1  0  0  0  0
  1 41  1  0  0  0  0
  2 42  1  0  0  0  0
  2 43  1  0  0  0  0
  6 44  1  0  0  0  0
  7 45  1  0  0  0  0
 10 46  1  0  0  0  0
 14 47  1  0  0  0  0
 14 48  1  0  0  0  0
 15 49  1  0  0  0  0
 15 50  1  0  0  0  0
 19 51  1  0  0  0  0
 20 52  1  0  0  0  0
 20 53  1  0  0  0  0
 21 54  1  0  0  0  0
 21 55  1  0  0  0  0
 22 56  1  0  0  0  0
 22 57  1  0  0  0  0
 23 58  1  0  0  0  0
 23 59  1  0  0  0  0
 24 60  1  0  0  0  0
 25 61  1  0  0  0  0
 28 62  1  0  0  0  0
 30 63  1  0  0  0  0
 31 64  1  0  0  0  0
 31 65  1  0  0  0  0
 32 66  1  0  0  0  0
 32 67  1  0  0  0  0
 34 68  1  0  0  0  0
 35 69  1  0  0  0  0
 35 70  1  0  0  0  0
 35 71  1  0  0  0  0
 36 72  1  0  0  0  0
 36 73  1  0  0  0  0
 36 74  1  0  0  0  0
 37 75  1  0  0  0  0
 37 76  1  0  0  0  0
 38 77  1  0  0  0  0
 38 78  1  0  0  0  0
M  END
$$$$
