
     RDKit          3D

 71 76  0  0  0  0  0  0  0  0999 V2000
    0.7500    7.8120  -11.8920 C   0  0  0  0  0  0  0  0  0  0  0  0
    0.3910    6.9170  -10.8040 N   0  0  0  0  0  4  0  0  0  0  0  0
    1.2590    7.2270   -9.6970 C   0  0  0  0  0  0  0  0  0  0  0  0
    0.7940    6.4980   -8.4270 C   0  0  0  0  0  0  0  0  0  0  0  0
   -0.5070    7.0000   -8.1320 N   0  0  0  0  0  0  0  0  0  0  0  0
   -1.0260    6.6540   -6.8340 C   0  0  0  0  0  0  0  0  0  0  0  0
   -0.5240    5.3660   -6.2870 C   0  0  0  0  0  0  0  0  0  0  0  0
   -0.4520    4.3960   -7.2670 O   0  0  0  0  0  0  0  0  0  0  0  0
   -1.3610    3.7760   -8.0470 C   0  0  0  0  0  0  0  0  0  0  0  0
   -0.9400    3.3720   -9.3190 C   0  0  0  0  0  0  0  0  0  0  0  0
   -1.8190    2.7330  -10.1570 C   0  0  0  0  0  0  0  0  0  0  0  0
   -1.3800    2.3560  -11.3830 O   0  0  0  0  0  0  0  0  0  0  0  0
   -0.1120    2.0620  -11.8170 C   0  0  0  0  0  0  0  0  0  0  0  0
    0.3680    0.7710  -11.1390 C   0  0  0  0  0  0  0  0  0  0  0  0
    1.6370    0.2750  -11.7660 C   0  0  0  0  0  0  0  0  0  0  0  0
    1.5650    0.1200  -13.1340 O   0  0  0  0  0  0  0  0  0  0  0  0
    1.3180    1.3950  -13.6860 C   0  0  0  0  0  0  0  0  0  0  0  0
   -0.1010    1.7610  -13.3110 C   0  0  0  0  0  0  0  0  0  0  0  0
   -3.1460    2.4510   -9.8110 C   0  0  0  0  0  0  0  0  0  0  0  0
   -4.0320    1.8240  -10.6340 C   0  0  0  0  0  0  0  0  0  0  0  0
   -3.6960    1.3710  -11.9120 N   0  0  0  0  0  0  0  0  0  0  0  0
   -4.5210    0.3750  -12.5620 C   0  0  0  0  0  0  0  0  0  0  0  0
   -3.8960   -0.7210  -13.1050 C   0  0  0  0  0  0  0  0  0  0  0  0
   -2.1600   -0.8480  -12.9700 Cl  0  0  0  0  0  0  0  0  0  0  0  0
   -4.6660   -1.6820  -13.7360 C   0  0  0  0  0  0  0  0  0  0  0  0
   -6.0480   -1.5040  -13.7990 C   0  0  0  0  0  0  0  0  0  0  0  0
   -6.6500   -0.3920  -13.2430 C   0  0  0  0  0  0  0  0  0  0  0  0
   -5.8760    0.5850  -12.6020 C   0  0  0  0  0  0  0  0  0  0  0  0
   -6.7640    1.5690  -12.1540 O   0  0  0  0  0  0  0  0  0  0  0  0
   -8.0120    0.8770  -12.0030 C   0  0  0  0  0  0  0  0  0  0  0  0
   -7.9690    0.0340  -13.1580 O   0  0  0  0  0  0  0  0  0  0  0  0
   -5.2940    1.6050  -10.2150 N   0  0  0  0  0  0  0  0  0  0  0  0
   -5.6530    2.0080   -8.9930 C   0  0  0  0  0  0  0  0  0  0  0  0
   -4.8010    2.6260   -8.1610 N   0  0  0  0  0  0  0  0  0  0  0  0
   -3.5250    2.8670   -8.5430 C   0  0  0  0  0  0  0  0  0  0  0  0
   -2.6600    3.5130   -7.6760 C   0  0  0  0  0  0  0  0  0  0  0  0
   -1.4100    6.6070   -9.1660 C   0  0  0  0  0  0  0  0  0  0  0  0
   -1.0130    7.1500  -10.5230 C   0  0  0  0  0  0  0  0  0  0  0  0
    1.1295    8.7581  -11.4785 H   0  0  0  0  0  0  0  0  0  0  0  0
    1.5297    7.3432  -12.5103 H   0  0  0  0  0  0  0  0  0  0  0  0
   -0.1375    8.0119  -12.5103 H   0  0  0  0  0  0  0  0  0  0  0  0
    0.5870    5.9440  -11.1300 H   0  0  0  0  0  0  0  0  0  0  0  0
    2.2838    6.9106   -9.9411 H   0  0  0  0  0  0  0  0  0  0  0  0
    1.2297    8.3115   -9.5152 H   0  0  0  0  0  0  0  0  0  0  0  0
    0.7527    5.4131   -8.6040 H   0  0  0  0  0  0  0  0  0  0  0  0
    1.4879    6.6690   -7.5908 H   0  0  0  0  0  0  0  0  0  0  0  0
   -0.7523    7.4546   -6.1311 H   0  0  0  0  0  0  0  0  0  0  0  0
   -2.1130    6.5372   -6.9553 H   0  0  0  0  0  0  0  0  0  0  0  0
    0.4795    5.5234   -5.8649 H   0  0  0  0  0  0  0  0  0  0  0  0
   -1.2245    5.0230   -5.5114 H   0  0  0  0  0  0  0  0  0  0  0  0
    0.0922    3.5660   -9.6461 H   0  0  0  0  0  0  0  0  0  0  0  0
    0.5235    2.9288  -11.5832 H   0  0  0  0  0  0  0  0  0  0  0  0
    0.5477    0.9702  -10.0722 H   0  0  0  0  0  0  0  0  0  0  0  0
   -0.4080    0.0011  -11.2616 H   0  0  0  0  0  0  0  0  0  0  0  0
    2.4378    0.9949  -11.5415 H   0  0  0  0  0  0  0  0  0  0  0  0
    1.8315   -0.7217  -11.3433 H   0  0  0  0  0  0  0  0  0  0  0  0
    2.0221    2.1311  -13.2709 H   0  0  0  0  0  0  0  0  0  0  0  0
    1.4501    1.3868  -14.7780 H   0  0  0  0  0  0  0  0  0  0  0  0
   -0.4227    2.6482  -13.8761 H   0  0  0  0  0  0  0  0  0  0  0  0
   -0.7909    0.9374  -13.5473 H   0  0  0  0  0  0  0  0  0  0  0  0
   -2.8920    1.6860  -12.4430 H   0  0  0  0  0  0  0  0  0  0  0  0
   -4.1960   -2.5716  -14.1806 H   0  0  0  0  0  0  0  0  0  0  0  0
   -6.6687   -2.2616  -14.2997 H   0  0  0  0  0  0  0  0  0  0  0  0
   -8.0447    0.2924  -11.0718 H   0  0  0  0  0  0  0  0  0  0  0  0
   -8.8972    1.5266  -11.9358 H   0  0  0  0  0  0  0  0  0  0  0  0
   -6.6845    1.8266   -8.6567 H   0  0  0  0  0  0  0  0  0  0  0  0
   -3.0146    3.8191   -6.6807 H   0  0  0  0  0  0  0  0  0  0  0  0
   -1.4295    5.5084   -9.2180 H   0  0  0  0  0  0  0  0  0  0  0  0
   -2.3995    7.0189   -8.9187 H   0  0  0  0  0  0  0  0  0  0  0  0
   -1.6184    6.6545  -11.2963 H   0  0  0  0  0  0  0  0  0  0  0  0
   -1.1870    8.2361  -10.5222 H   0  0  0  0  0  0  0  0  0  0  0  0
  1  2  1  0
  2  3  1  0
  3  4  1  0
  4  5  1  0
  5  6  1  0
  6  7  1  0
  7  8  1  0
  8  9  1  0
  9 10  2  0
 10 11  1  0
 11 12  1  0
 12 13  1  0
 13 14  1  0
 14 15  1  0
 15 16  1  0
 16 17  1  0
 17 18  1  0
 11 19  2  0
 19 20  1  0
 20 21  1  0
 21 22  1  0
 22 23  2  0
 23 24  1  0
 23 25  1  0
 25 26  2  0
 26 27  1  0
 27 28  2  0
 28 29  1  0
 29 30  1  0
 30 31  1  0
 20 32  2  0
 32 33  1  0
 33 34  2  0
 34 35  1  0
 35 36  2  0
  5 37  1  0
 37 38  1  0
 38  2  1  0
 36  9  1  0
 18 13  1  0
 35 19  1  0
 28 22  1  0
 31 27  1  0
  1 39  1  0
  1 40  1  0
  1 41  1  0
  2 42  1  0
  3 43  1  0
  3 44  1  0
  4 45  1  0
  4 46  1  0
  6 47  1  0
  6 48  1  0
  7 49  1  0
  7 50  1  0
 10 51  1  0
 13 52  1  0
 14 53  1  0
 14 54  1  0
 15 55  1  0
 15 56  1  0
 17 57  1  0
 17 58  1  0
 18 59  1  0
 18 60  1  0
 21 61  1  0
 25 62  1  0
 26 63  1  0
 30 64  1  0
 30 65  1  0
 33 66  1  0
 36 67  1  0
 37 68  1  0
 37 69  1  0
 38 70  1  0
 38 71  1  0
M  CHG  1   2   1
M  END
