obj01
  PyMOL3.1          3D                             0

 61 64  0  0  0  0  0  0  0  0999 V2000
    0.1899    1.3541  -15.3003 C   0  0  0  0  0  0  0  0  0  0  0  0
    0.6015    1.4166  -13.9820 O   0  0  0  0  0  0  0  0  0  0  0  0
   -0.4136    1.1667  -13.0217 C   0  0  0  0  0  0  0  0  0  0  0  0
   -1.7220    0.7269  -13.3706 C   0  0  0  0  0  0  0  0  0  0  0  0
   -2.7063    0.5111  -12.3429 C   0  0  0  0  0  0  0  0  0  0  0  0
   -4.0084    0.0535  -12.6604 C   0  0  0  0  0  0  0  0  0  0  0  0
   -4.1438   -1.2353  -13.2899 C   0  0  0  0  0  0  0  0  0  0  0  0
   -5.3695   -1.7178  -13.6027 N   0  0  0  0  0  0  0  0  0  0  0  0
   -6.4681   -1.0419  -13.3213 C   0  0  0  0  0  0  0  0  0  0  0  0
   -6.4530    0.2419  -12.6890 C   0  0  0  0  0  0  0  0  0  0  0  0
   -7.7354    0.8725  -12.4377 C   0  0  0  0  0  0  0  0  0  0  0  0
   -8.0675    1.4093  -11.2003 C   0  0  0  0  0  0  0  0  0  0  0  0
   -9.3207    1.9759  -10.9498 C   0  0  0  0  0  0  0  0  0  0  0  0
  -10.3146    1.9996  -11.9681 C   0  0  0  0  0  0  0  0  0  0  0  0
  -11.7377    2.6137  -11.6908 C   0  0  0  0  0  0  0  0  0  0  0  0
  -12.3372    1.8871  -11.1059 N   0  0  0  0  0  0  0  0  0  0  0  0
  -13.6813    2.4050  -10.6501 C   0  0  0  0  0  0  0  0  0  0  0  0
  -14.4852    1.3674  -10.5504 C   0  0  0  0  0  0  0  0  0  0  0  0
  -13.8231    0.2052  -11.3356 C   0  0  0  0  0  0  0  0  0  0  0  0
  -12.7045    0.6467  -11.8679 C   0  0  0  0  0  0  0  0  0  0  0  0
  -10.0067    1.4408  -13.1911 C   0  0  0  0  0  0  0  0  0  0  0  0
   -8.7495    0.8723  -13.4491 C   0  0  0  0  0  0  0  0  0  0  0  0
   -5.1664    0.7953  -12.3525 C   0  0  0  0  0  0  0  0  0  0  0  0
   -5.0790    2.2208  -11.6471 C   0  0  0  0  0  0  0  0  0  0  0  0
   -2.3635    0.7164  -11.0275 C   0  0  0  0  0  0  0  0  0  0  0  0
   -1.0624    1.1658  -10.6955 C   0  0  0  0  0  0  0  0  0  0  0  0
   -0.6751    1.4087   -9.3870 O   0  0  0  0  0  0  0  0  0  0  0  0
   -1.7045    1.6872   -8.4974 C   0  0  0  0  0  0  0  0  0  0  0  0
   -0.1046    1.3859  -11.7109 C   0  0  0  0  0  0  0  0  0  0  0  0
    1.1751    1.8449  -11.3701 O   0  0  0  0  0  0  0  0  0  0  0  0
    2.0860    0.8364  -11.0649 C   0  0  0  0  0  0  0  0  0  0  0  0
    0.0576    0.4562  -15.5431 H   0  0  0  0  0  0  0  0  0  0  0  0
   -0.6156    1.8279  -15.3987 H   0  0  0  0  0  0  0  0  0  0  0  0
    0.8480    1.7349  -15.8514 H   0  0  0  0  0  0  0  0  0  0  0  0
   -1.9399    0.5795  -14.2625 H   0  0  0  0  0  0  0  0  0  0  0  0
   -3.3856   -1.7368  -13.4819 H   0  0  0  0  0  0  0  0  0  0  0  0
   -7.2881   -1.4166  -13.5443 H   0  0  0  0  0  0  0  0  0  0  0  0
   -7.4377    1.3914  -10.5180 H   0  0  0  0  0  0  0  0  0  0  0  0
   -9.5045    2.3391  -10.1146 H   0  0  0  0  0  0  0  0  0  0  0  0
  -12.1676    2.7908  -12.5065 H   0  0  0  0  0  0  0  0  0  0  0  0
  -11.6473    3.4108  -11.2032 H   0  0  0  0  0  0  0  0  0  0  0  0
  -13.5941    2.8184   -9.8115 H   0  0  0  0  0  0  0  0  0  0  0  0
  -14.0211    3.0086  -11.2833 H   0  0  0  0  0  0  0  0  0  0  0  0
  -15.3192    1.5751  -10.9301 H   0  0  0  0  0  0  0  0  0  0  0  0
  -14.5853    1.1280   -9.6486 H   0  0  0  0  0  0  0  0  0  0  0  0
  -13.6315   -0.4991  -10.7449 H   0  0  0  0  0  0  0  0  0  0  0  0
  -14.4028   -0.0801  -12.0161 H   0  0  0  0  0  0  0  0  0  0  0  0
  -12.8438    0.8526  -12.7735 H   0  0  0  0  0  0  0  0  0  0  0  0
  -12.0316   -0.0021  -11.7748 H   0  0  0  0  0  0  0  0  0  0  0  0
  -10.6490    1.4399  -13.8632 H   0  0  0  0  0  0  0  0  0  0  0  0
   -8.5723    0.4955  -14.2792 H   0  0  0  0  0  0  0  0  0  0  0  0
   -5.1419    2.1145  -10.7156 H   0  0  0  0  0  0  0  0  0  0  0  0
   -5.7845    2.7632  -11.9472 H   0  0  0  0  0  0  0  0  0  0  0  0
   -4.2601    2.6271  -11.8599 H   0  0  0  0  0  0  0  0  0  0  0  0
   -2.9859    0.5603  -10.3553 H   0  0  0  0  0  0  0  0  0  0  0  0
   -2.2919    2.3561   -8.8827 H   0  0  0  0  0  0  0  0  0  0  0  0
   -2.2079    0.8781   -8.3213 H   0  0  0  0  0  0  0  0  0  0  0  0
   -1.3315    2.0246   -7.6677 H   0  0  0  0  0  0  0  0  0  0  0  0
    2.9598    1.0740  -11.4119 H   0  0  0  0  0  0  0  0  0  0  0  0
    1.7947    0.0035  -11.4675 H   0  0  0  0  0  0  0  0  0  0  0  0
    2.1397    0.7294  -10.1022 H   0  0  0  0  0  0  0  0  0  0  0  0
  1  2  1  0  0  0  0
  2  3  1  0  0  0  0
  3  4  2  0  0  0  0
  4  5  1  0  0  0  0
  5  6  1  0  0  0  0
  6  7  1  0  0  0  0
  7  8  2  0  0  0  0
  8  9  1  0  0  0  0
  9 10  2  0  0  0  0
 10 11  1  0  0  0  0
 11 12  1  0  0  0  0
 12 13  2  0  0  0  0
 13 14  1  0  0  0  0
 14 15  1  0  0  0  0
 15 16  1  0  0  0  0
 16 17  1  0  0  0  0
 17 18  1  0  0  0  0
 18 19  1  0  0  0  0
 16 20  1  0  0  0  0
 19 20  1  0  0  0  0
 14 21  2  0  0  0  0
 11 22  2  0  0  0  0
 21 22  1  0  0  0  0
  6 23  2  0  0  0  0
 10 23  1  0  0  0  0
 23 24  1  0  0  0  0
  5 25  2  0  0  0  0
 25 26  1  0  0  0  0
 26 27  1  0  0  0  0
 27 28  1  0  0  0  0
  3 29  1  0  0  0  0
 26 29  2  0  0  0  0
 29 30  1  0  0  0  0
 30 31  1  0  0  0  0
  1 32  1  0  0  0  0
  1 33  1  0  0  0  0
  1 34  1  0  0  0  0
  4 35  1  0  0  0  0
  7 36  1  0  0  0  0
  9 37  1  0  0  0  0
 12 38  1  0  0  0  0
 13 39  1  0  0  0  0
 15 40  1  0  0  0  0
 15 41  1  0  0  0  0
 17 42  1  0  0  0  0
 17 43  1  0  0  0  0
 18 44  1  0  0  0  0
 18 45  1  0  0  0  0
 19 46  1  0  0  0  0
 19 47  1  0  0  0  0
 20 48  1  0  0  0  0
 20 49  1  0  0  0  0
 21 50  1  0  0  0  0
 22 51  1  0  0  0  0
 24 52  1  0  0  0  0
 24 53  1  0  0  0  0
 24 54  1  0  0  0  0
 25 55  1  0  0  0  0
 28 56  1  0  0  0  0
 28 57  1  0  0  0  0
 28 58  1  0  0  0  0
 31 59  1  0  0  0  0
 31 60  1  0  0  0  0
 31 61  1  0  0  0  0
M  END
$$$$
