
     RDKit          3D

 46 49  0  0  0  0  0  0  0  0999 V2000
   -4.7280   -0.9660  -13.7400 C   0  0  0  0  0  0  0  0  0  0  0  0
   -3.6530   -0.0300  -13.3890 N   0  0  0  0  0  0  0  0  0  0  0  0
   -2.2890   -0.4350  -13.3830 C   0  0  0  0  0  0  0  0  0  0  0  0
   -2.0590   -1.6380  -13.6960 O   0  0  0  0  0  0  0  0  0  0  0  0
   -1.2190    0.4930  -13.0330 C   0  0  0  0  0  0  0  0  0  0  0  0
   -0.4450    1.1320  -13.9810 C   0  0  0  0  0  0  0  0  0  0  0  0
    0.5540    1.9990  -13.6350 C   0  0  0  0  0  0  0  0  0  0  0  0
    0.8290    2.2710  -12.3030 C   0  0  0  0  0  0  0  0  0  0  0  0
    0.0700    1.6460  -11.3310 C   0  0  0  0  0  0  0  0  0  0  0  0
   -0.9320    0.7760  -11.7070 C   0  0  0  0  0  0  0  0  0  0  0  0
   -1.9110   -0.0310  -10.4590 S   0  0  0  0  0  0  0  0  0  0  0  0
   -3.1890    1.0670   -9.8690 C   0  0  0  0  0  0  0  0  0  0  0  0
   -2.9620    2.0570   -8.9430 C   0  0  0  0  0  0  0  0  0  0  0  0
   -3.9790    2.8920   -8.5080 C   0  0  0  0  0  0  0  0  0  0  0  0
   -5.2530    2.7360   -9.0080 C   0  0  0  0  0  0  0  0  0  0  0  0
   -6.4670    3.3800   -8.7950 C   0  0  0  0  0  0  0  0  0  0  0  0
   -6.6790    4.4840   -7.8940 C   0  0  0  0  0  0  0  0  0  0  0  0
   -7.4400    4.3100   -6.8210 C   0  0  0  0  0  0  0  0  0  0  0  0
   -7.6590    5.4190   -5.9070 C   0  0  0  0  0  0  0  0  0  0  0  0
   -7.8330    5.2110   -4.5640 C   0  0  0  0  0  0  0  0  0  0  0  0
   -8.0430    6.2440   -3.6680 C   0  0  0  0  0  0  0  0  0  0  0  0
   -8.0820    7.5440   -4.1260 C   0  0  0  0  0  0  0  0  0  0  0  0
   -7.9040    7.7220   -5.4860 C   0  0  0  0  0  0  0  0  0  0  0  0
   -7.7010    6.7050   -6.3370 N   0  0  0  0  0  0  0  0  0  0  0  0
   -7.4090    2.7820   -9.5840 N   0  0  0  0  0  0  0  0  0  0  0  0
   -6.8170    1.8120  -10.2580 N   0  0  0  0  0  0  0  0  0  0  0  0
   -5.5160    1.7560   -9.9350 C   0  0  0  0  0  0  0  0  0  0  0  0
   -4.4780    0.9380  -10.3500 C   0  0  0  0  0  0  0  0  0  0  0  0
   -5.1835   -1.3626  -12.8207 H   0  0  0  0  0  0  0  0  0  0  0  0
   -5.4928   -0.4410  -14.3312 H   0  0  0  0  0  0  0  0  0  0  0  0
   -4.3132   -1.7957  -14.3312 H   0  0  0  0  0  0  0  0  0  0  0  0
   -3.8680    0.9500  -13.1360 H   0  0  0  0  0  0  0  0  0  0  0  0
   -0.6378    0.9378  -15.0464 H   0  0  0  0  0  0  0  0  0  0  0  0
    1.1469    2.4868  -14.4227 H   0  0  0  0  0  0  0  0  0  0  0  0
    1.6332    2.9686  -12.0261 H   0  0  0  0  0  0  0  0  0  0  0  0
    0.2638    1.8411  -10.2659 H   0  0  0  0  0  0  0  0  0  0  0  0
   -1.9483    2.1898   -8.5372 H   0  0  0  0  0  0  0  0  0  0  0  0
   -3.7695    3.6766   -7.7660 H   0  0  0  0  0  0  0  0  0  0  0  0
   -6.2148    5.4611   -8.0935 H   0  0  0  0  0  0  0  0  0  0  0  0
   -7.9027    3.3317   -6.6241 H   0  0  0  0  0  0  0  0  0  0  0  0
   -7.8045    4.1797   -4.1823 H   0  0  0  0  0  0  0  0  0  0  0  0
   -8.1779    6.0297   -2.5975 H   0  0  0  0  0  0  0  0  0  0  0  0
   -8.2458    8.3935   -3.4466 H   0  0  0  0  0  0  0  0  0  0  0  0
   -7.9301    8.7453   -5.8887 H   0  0  0  0  0  0  0  0  0  0  0  0
   -8.4120    3.0680   -9.6210 H   0  0  0  0  0  0  0  0  0  0  0  0
   -4.6883    0.1541  -11.0924 H   0  0  0  0  0  0  0  0  0  0  0  0
  1  2  1  0
  2  3  1  0
  3  4  2  0
  3  5  1  0
  5  6  2  0
  6  7  1  0
  7  8  2  0
  8  9  1  0
  9 10  2  0
 10 11  1  0
 11 12  1  0
 12 13  1  0
 13 14  2  0
 14 15  1  0
 15 16  2  0
 16 17  1  0
 17 18  2  3
 18 19  1  0
 19 20  2  0
 20 21  1  0
 21 22  2  0
 22 23  1  0
 23 24  2  0
 16 25  1  0
 25 26  1  0
 26 27  2  0
 27 28  1  0
 10  5  1  0
 28 12  2  0
 27 15  1  0
 24 19  1  0
  1 29  1  0
  1 30  1  0
  1 31  1  0
  2 32  1  0
  6 33  1  0
  7 34  1  0
  8 35  1  0
  9 36  1  0
 13 37  1  0
 14 38  1  0
 17 39  1  0
 18 40  1  0
 20 41  1  0
 21 42  1  0
 22 43  1  0
 23 44  1  0
 25 45  1  0
 28 46  1  0
M  END
