obj01
  PyMOL3.1          3D                             0

 33 37  0  0  0  0  0  0  0  0999 V2000
   -0.0135    1.1934  -15.5611 C   0  0  0  0  0  0  0  0  0  0  0  0
    0.4136    1.5891  -14.2753 O   0  0  0  0  0  0  0  0  0  0  0  0
   -0.4642    1.3787  -13.1966 C   0  0  0  0  0  0  0  0  0  0  0  0
   -0.0230    1.5264  -11.9002 C   0  0  0  0  0  0  0  0  0  0  0  0
    1.3192    1.8906  -11.6135 O   0  0  0  0  0  0  0  0  0  0  0  0
    2.1745    0.8894  -11.1312 C   0  0  0  0  0  0  0  0  0  0  0  0
   -0.9258    1.3097  -10.8618 C   0  0  0  0  0  0  0  0  0  0  0  0
   -0.5648    1.4334   -9.5167 O   0  0  0  0  0  0  0  0  0  0  0  0
   -1.5180    1.9655   -8.6133 C   0  0  0  0  0  0  0  0  0  0  0  0
   -2.2647    0.9406  -11.1636 C   0  0  0  0  0  0  0  0  0  0  0  0
   -2.7639    0.7758  -12.4730 C   0  0  0  0  0  0  0  0  0  0  0  0
   -4.2186    0.3964  -12.8058 C   0  0  0  0  0  0  0  0  0  0  0  0
   -4.4900   -0.7993  -13.4936 C   0  0  0  0  0  0  0  0  0  0  0  0
   -5.7203   -1.2571  -13.8372 N   0  0  0  0  0  0  0  0  0  0  0  0
   -6.8155   -0.5034  -13.4983 C   0  0  0  0  0  0  0  0  0  0  0  0
   -6.7128    0.7294  -12.8028 C   0  0  0  0  0  0  0  0  0  0  0  0
   -5.4205    1.1465  -12.4576 C   0  0  0  0  0  0  0  0  0  0  0  0
   -5.2576    2.4600  -11.7285 C   0  0  0  0  0  0  0  0  0  0  0  0
   -6.1800    2.8017  -10.5050 C   0  0  0  0  0  0  0  0  0  0  0  0
   -7.4223    2.0884  -10.2878 O   0  0  0  0  0  0  0  0  0  0  0  0
   -8.3565    2.0420  -11.3408 C   0  0  0  0  0  0  0  0  0  0  0  0
   -8.0366    1.4024  -12.5079 C   0  0  0  0  0  0  0  0  0  0  0  0
   -9.0685    1.4313  -13.4715 C   0  0  0  0  0  0  0  0  0  0  0  0
  -10.3361    2.0481  -13.2740 C   0  0  0  0  0  0  0  0  0  0  0  0
  -10.6756    2.7087  -12.0655 C   0  0  0  0  0  0  0  0  0  0  0  0
  -12.0051    3.3502  -11.8658 N   0  0  0  0  0  0  0  0  0  0  0  0
  -12.6406    3.4328  -10.4836 C   0  0  0  0  0  0  0  0  0  0  0  0
  -12.5276    4.8154   -9.7574 C   0  0  0  0  0  0  0  0  0  0  0  0
  -12.7461    5.9797  -10.6124 N   0  0  0  0  0  0  0  0  0  0  0  0
  -13.3635    5.5660  -11.8738 C   0  0  0  0  0  0  0  0  0  0  0  0
  -12.4939    4.5448  -12.6525 C   0  0  0  0  0  0  0  0  0  0  0  0
   -9.6337    2.6851  -11.0849 C   0  0  0  0  0  0  0  0  0  0  0  0
   -1.8093    1.0136  -13.5059 C   0  0  0  0  0  0  0  0  0  0  0  0
  1  2  1  0  0  0  0
  2  3  1  0  0  0  0
  3  4  1  0  0  0  0
  4  5  1  0  0  0  0
  5  6  1  0  0  0  0
  4  7  2  0  0  0  0
  7  8  1  0  0  0  0
  8  9  1  0  0  0  0
  7 10  1  0  0  0  0
 10 11  2  0  0  0  0
 11 12  1  0  0  0  0
 12 13  1  0  0  0  0
 13 14  2  0  0  0  0
 14 15  1  0  0  0  0
 15 16  2  0  0  0  0
 12 17  2  0  0  0  0
 16 17  1  0  0  0  0
 17 18  1  0  0  0  0
 18 19  1  0  0  0  0
 19 20  1  0  0  0  0
 20 21  1  0  0  0  0
 16 22  1  0  0  0  0
 21 22  2  0  0  0  0
 22 23  1  0  0  0  0
 23 24  2  0  0  0  0
 24 25  1  0  0  0  0
 25 26  1  0  0  0  0
 26 27  1  0  0  0  0
 27 28  1  0  0  0  0
 28 29  1  0  0  0  0
 29 30  1  0  0  0  0
 26 31  1  0  0  0  0
 30 31  1  0  0  0  0
 21 32  1  0  0  0  0
 25 32  2  0  0  0  0
  3 33  2  0  0  0  0
 11 33  1  0  0  0  0
M  END
$$$$
