
     RDKit          3D

 45 48  0  0  0  0  0  0  0  0999 V2000
   -0.8880    7.4650  -10.9550 C   0  0  0  0  0  0  0  0  0  0  0  0
    0.6760    7.7660  -10.0510 S   0  0  0  0  0  0  0  0  0  0  0  0
    0.4570    7.0860   -8.4140 C   0  0  0  0  0  0  0  0  0  0  0  0
    0.9070    7.8070   -7.3220 C   0  0  0  0  0  0  0  0  0  0  0  0
    0.7460    7.2970   -6.0520 C   0  0  0  0  0  0  0  0  0  0  0  0
    0.1390    6.0690   -5.8550 C   0  0  0  0  0  0  0  0  0  0  0  0
   -0.3210    5.3210   -6.9130 C   0  0  0  0  0  0  0  0  0  0  0  0
   -0.9610    4.0760   -6.8350 N   0  0  0  0  0  0  0  0  0  0  0  0
   -1.7530    3.4300   -7.8150 C   0  0  0  0  0  0  0  0  0  0  0  0
   -3.0620    3.1830   -7.5940 N   0  0  0  0  0  0  0  0  0  0  0  0
   -3.7950    2.5680   -8.5180 C   0  0  0  0  0  0  0  0  0  0  0  0
   -3.2240    2.1810   -9.7070 C   0  0  0  0  0  0  0  0  0  0  0  0
   -3.9710    1.5420  -10.6740 C   0  0  0  0  0  0  0  0  0  0  0  0
   -3.3300    1.1840  -11.8380 C   0  0  0  0  0  0  0  0  0  0  0  0
   -4.0940    0.5040  -12.8880 C   0  0  0  0  0  0  0  0  0  0  0  0
   -3.7260   -0.7510  -13.3090 C   0  0  0  0  0  0  0  0  0  0  0  0
   -2.3460   -1.5240  -12.5810 Cl  0  0  0  0  0  0  0  0  0  0  0  0
   -4.4740   -1.3480  -14.2970 C   0  0  0  0  0  0  0  0  0  0  0  0
   -5.5650   -0.7310  -14.8690 C   0  0  0  0  0  0  0  0  0  0  0  0
   -5.9210    0.5350  -14.4330 C   0  0  0  0  0  0  0  0  0  0  0  0
   -5.1880    1.1520  -13.4440 C   0  0  0  0  0  0  0  0  0  0  0  0
   -5.6640    2.7540  -12.9150 Cl  0  0  0  0  0  0  0  0  0  0  0  0
   -1.9870    1.4720  -11.9890 C   0  0  0  0  0  0  0  0  0  0  0  0
   -1.4230    1.1430  -13.0440 O   0  0  0  0  0  0  0  0  0  0  0  0
   -1.2850    2.0880  -11.0440 N   0  0  0  0  0  0  0  0  0  0  0  0
    0.1330    2.3800  -11.2340 C   0  0  0  0  0  0  0  0  0  0  0  0
   -1.8920    2.4470   -9.9000 C   0  0  0  0  0  0  0  0  0  0  0  0
   -1.1650    3.0650   -8.9640 N   0  0  0  0  0  0  0  0  0  0  0  0
   -0.1370    5.8780   -8.1880 C   0  0  0  0  0  0  0  0  0  0  0  0
   -1.7038    7.3080  -10.2341 H   0  0  0  0  0  0  0  0  0  0  0  0
   -1.1195    8.3351  -11.5870 H   0  0  0  0  0  0  0  0  0  0  0  0
   -0.7800    6.5711  -11.5870 H   0  0  0  0  0  0  0  0  0  0  0  0
    1.3915    8.7838   -7.4672 H   0  0  0  0  0  0  0  0  0  0  0  0
    1.1038    7.8722   -5.1854 H   0  0  0  0  0  0  0  0  0  0  0  0
    0.0222    5.6836   -4.8314 H   0  0  0  0  0  0  0  0  0  0  0  0
   -0.8600    3.5200   -5.9270 H   0  0  0  0  0  0  0  0  0  0  0  0
   -4.8604    2.3687   -8.3303 H   0  0  0  0  0  0  0  0  0  0  0  0
   -5.0388    1.3266  -10.5208 H   0  0  0  0  0  0  0  0  0  0  0  0
   -4.1912   -2.3533  -14.6425 H   0  0  0  0  0  0  0  0  0  0  0  0
   -6.1431   -1.2345  -15.6578 H   0  0  0  0  0  0  0  0  0  0  0  0
   -6.7880    1.0466  -14.8763 H   0  0  0  0  0  0  0  0  0  0  0  0
    0.6212    2.4805  -10.2534 H   0  0  0  0  0  0  0  0  0  0  0  0
    0.6041    1.5600  -11.7958 H   0  0  0  0  0  0  0  0  0  0  0  0
    0.2418    3.3194  -11.7958 H   0  0  0  0  0  0  0  0  0  0  0  0
   -0.4930    5.3065   -9.0578 H   0  0  0  0  0  0  0  0  0  0  0  0
  1  2  1  0
  2  3  1  0
  3  4  2  0
  4  5  1  0
  5  6  2  0
  6  7  1  0
  7  8  1  0
  8  9  1  0
  9 10  2  0
 10 11  1  0
 11 12  2  0
 12 13  1  0
 13 14  2  0
 14 15  1  0
 15 16  2  0
 16 17  1  0
 16 18  1  0
 18 19  2  0
 19 20  1  0
 20 21  2  0
 21 22  1  0
 14 23  1  0
 23 24  2  0
 23 25  1  0
 25 26  1  0
 25 27  1  0
 27 28  2  0
  7 29  2  0
 29  3  1  0
 28  9  1  0
 27 12  1  0
 21 15  1  0
  1 30  1  0
  1 31  1  0
  1 32  1  0
  4 33  1  0
  5 34  1  0
  6 35  1  0
  8 36  1  0
 11 37  1  0
 13 38  1  0
 18 39  1  0
 19 40  1  0
 20 41  1  0
 26 42  1  0
 26 43  1  0
 26 44  1  0
 29 45  1  0
M  END
