obj01
  PyMOL3.1          3D                             0

 32 37  0  0  0  0  0  0  0  0999 V2000
  -12.7474    2.5834  -12.0938 N   0  0  0  0  0  0  0  0  0  0  0  0
  -13.9752    1.7481  -12.1675 C   0  0  0  0  0  0  0  0  0  0  0  0
    0.3080    3.2020   -9.0226 O   0  0  0  0  0  0  0  0  0  0  0  0
  -13.0386    4.0338  -11.9483 C   0  0  0  0  0  0  0  0  0  0  0  0
  -15.3075    3.6640  -11.1426 N   0  0  0  0  0  0  0  0  0  0  0  0
  -15.1711    2.1976  -11.2826 C   0  0  0  0  0  0  0  0  0  0  0  0
   -4.9713   -1.6054  -13.7314 N   0  0  0  0  0  0  0  0  0  0  0  0
  -14.0140    4.2707  -10.7872 C   0  0  0  0  0  0  0  0  0  0  0  0
   -5.6864   -0.6733  -13.2820 N   0  0  0  0  0  0  0  0  0  0  0  0
   -8.7738    1.1347  -12.6432 C   0  0  0  0  0  0  0  0  0  0  0  0
   -1.4560    1.8796   -9.3951 N   0  0  0  0  0  0  0  0  0  0  0  0
   -9.8515    0.5827  -13.3498 C   0  0  0  0  0  0  0  0  0  0  0  0
   -3.1721    1.4324  -11.5572 N   0  0  0  0  0  0  0  0  0  0  0  0
   -9.0657    2.1363  -11.7086 C   0  0  0  0  0  0  0  0  0  0  0  0
  -11.1490    1.0667  -13.1618 C   0  0  0  0  0  0  0  0  0  0  0  0
  -10.3571    2.6077  -11.5224 C   0  0  0  0  0  0  0  0  0  0  0  0
  -11.4243    2.0784  -12.2474 C   0  0  0  0  0  0  0  0  0  0  0  0
   -3.0254   -0.5834  -12.7931 C   0  0  0  0  0  0  0  0  0  0  0  0
   -3.5963   -1.6020  -13.5192 C   0  0  0  0  0  0  0  0  0  0  0  0
   -3.8170    0.4445  -12.3288 C   0  0  0  0  0  0  0  0  0  0  0  0
   -5.2026    0.3515  -12.5872 C   0  0  0  0  0  0  0  0  0  0  0  0
   -6.2424    1.1930  -12.2495 C   0  0  0  0  0  0  0  0  0  0  0  0
   -7.3768    0.6118  -12.7859 C   0  0  0  0  0  0  0  0  0  0  0  0
   -7.0006   -0.5567  -13.4271 C   0  0  0  0  0  0  0  0  0  0  0  0
   -0.9357    1.3078  -10.6538 C   0  0  0  0  0  0  0  0  0  0  0  0
   -1.7906    1.9413  -11.7829 C   0  0  0  0  0  0  0  0  0  0  0  0
   -2.8174    1.3693   -9.1565 C   0  0  0  0  0  0  0  0  0  0  0  0
   -3.7033    1.9404  -10.2692 C   0  0  0  0  0  0  0  0  0  0  0  0
   -0.7987    2.8581   -8.6752 C   0  0  0  0  0  0  0  0  0  0  0  0
   -1.4542    3.5999   -7.5166 C   0  0  0  0  0  0  0  0  0  0  0  0
   -2.2733    4.7887   -7.8262 C   0  0  0  0  0  0  0  0  0  0  0  0
   -0.9330    4.8625   -6.9656 C   0  0  0  0  0  0  0  0  0  0  0  0
  1  2  1  0  0  0  0
  1  4  1  0  0  0  0
  2  6  1  0  0  0  0
  5  6  1  0  0  0  0
  4  8  1  0  0  0  0
  5  8  1  0  0  0  0
  7  9  1  0  0  0  0
 10 12  2  0  0  0  0
 10 14  1  0  0  0  0
 12 15  1  0  0  0  0
 14 16  2  0  0  0  0
  1 17  1  0  0  0  0
 15 17  2  0  0  0  0
 16 17  1  0  0  0  0
  7 19  2  0  0  0  0
 18 19  1  0  0  0  0
 13 20  1  0  0  0  0
 18 20  2  0  0  0  0
  9 21  1  0  0  0  0
 20 21  1  0  0  0  0
 21 22  2  0  0  0  0
 10 23  1  0  0  0  0
 22 23  1  0  0  0  0
  9 24  1  0  0  0  0
 23 24  2  0  0  0  0
 11 25  1  0  0  0  0
 13 26  1  0  0  0  0
 25 26  1  0  0  0  0
 11 27  1  0  0  0  0
 13 28  1  0  0  0  0
 27 28  1  0  0  0  0
  3 29  2  0  0  0  0
 11 29  1  0  0  0  0
 29 30  1  0  0  0  0
 30 31  1  0  0  0  0
 30 32  1  0  0  0  0
 31 32  1  0  0  0  0
M  END
$$$$
