obj01
  PyMOL3.1          3D                             0

 34 37  0  0  0  0  0  0  0  0999 V2000
    0.5228    1.1884  -15.0156 C   0  0  0  0  0  0  0  0  0  0  0  0
    0.9899    1.0340  -13.6902 O   0  0  0  0  0  0  0  0  0  0  0  0
   -0.0568    0.8583  -12.7398 C   0  0  0  0  0  0  0  0  0  0  0  0
   -1.3551    0.4651  -13.1733 C   0  0  0  0  0  0  0  0  0  0  0  0
   -2.3783    0.3078  -12.2319 C   0  0  0  0  0  0  0  0  0  0  0  0
   -3.6997   -0.0921  -12.5643 C   0  0  0  0  0  0  0  0  0  0  0  0
   -3.9256   -1.3360  -13.2041 C   0  0  0  0  0  0  0  0  0  0  0  0
   -5.1609   -1.7931  -13.5173 N   0  0  0  0  0  0  0  0  0  0  0  0
   -6.2410   -1.0665  -13.2095 C   0  0  0  0  0  0  0  0  0  0  0  0
   -6.1385    0.1935  -12.5756 C   0  0  0  0  0  0  0  0  0  0  0  0
   -7.3793    0.8714  -12.2692 C   0  0  0  0  0  0  0  0  0  0  0  0
   -7.6072    1.3495  -10.9842 C   0  0  0  0  0  0  0  0  0  0  0  0
   -8.8067    2.0055  -10.6373 C   0  0  0  0  0  0  0  0  0  0  0  0
   -9.8267    2.1248  -11.6057 C   0  0  0  0  0  0  0  0  0  0  0  0
  -11.1001    2.8085  -11.2037 N   0  0  0  0  0  0  0  0  0  0  0  0
  -12.1072    3.1489  -12.1896 C   0  0  0  0  0  0  0  0  0  0  0  0
  -13.4835    3.3834  -11.5441 C   0  0  0  0  0  0  0  0  0  0  0  0
  -13.5053    4.1051  -10.3712 N   0  0  0  0  0  0  0  0  0  0  0  0
  -14.1776    5.2228  -10.4408 C   0  0  0  0  0  0  0  0  0  0  0  0
  -15.5791    4.9882  -11.1113 C   0  0  0  0  0  0  0  0  0  0  0  0
  -14.3638    5.8473   -9.0594 C   0  0  0  0  0  0  0  0  0  0  0  0
  -12.3555    4.1761   -9.5887 C   0  0  0  0  0  0  0  0  0  0  0  0
  -11.0284    3.9426  -10.3163 C   0  0  0  0  0  0  0  0  0  0  0  0
   -9.6456    1.6215  -12.8753 C   0  0  0  0  0  0  0  0  0  0  0  0
   -8.4168    0.9743  -13.2260 C   0  0  0  0  0  0  0  0  0  0  0  0
   -4.8374    0.6985  -12.2248 C   0  0  0  0  0  0  0  0  0  0  0  0
   -4.6547    2.0788  -11.5248 C   0  0  0  0  0  0  0  0  0  0  0  0
   -2.0746    0.4880  -10.8720 C   0  0  0  0  0  0  0  0  0  0  0  0
   -0.8066    0.8908  -10.4416 C   0  0  0  0  0  0  0  0  0  0  0  0
    0.2149    1.0607  -11.3924 C   0  0  0  0  0  0  0  0  0  0  0  0
    1.6290    1.5070  -10.9035 C   0  0  0  0  0  0  0  0  0  0  0  0
    1.7056    2.5776   -9.9299 N   0  0  0  0  0  0  0  0  0  0  0  0
    2.6271    1.0051  -11.3201 O   0  0  0  0  0  0  0  0  0  0  0  0
   -0.5713    1.1043   -9.1042 F   0  0  0  0  0  0  0  0  0  0  0  0
  1  2  1  0  0  0  0
  2  3  1  0  0  0  0
  3  4  2  0  0  0  0
  4  5  1  0  0  0  0
  5  6  1  0  0  0  0
  6  7  2  0  0  0  0
  7  8  1  0  0  0  0
  8  9  2  0  0  0  0
  9 10  1  0  0  0  0
 10 11  1  0  0  0  0
 11 12  2  0  0  0  0
 12 13  1  0  0  0  0
 13 14  2  0  0  0  0
 14 15  1  0  0  0  0
 15 16  1  0  0  0  0
 16 17  1  0  0  0  0
 17 18  1  0  0  0  0
 18 19  1  0  0  0  0
 19 20  1  0  0  0  0
 19 21  1  0  0  0  0
 18 22  1  0  0  0  0
 15 23  1  0  0  0  0
 22 23  1  0  0  0  0
 14 24  1  0  0  0  0
 11 25  1  0  0  0  0
 24 25  2  0  0  0  0
  6 26  1  0  0  0  0
 10 26  2  0  0  0  0
 26 27  1  0  0  0  0
  5 28  2  0  0  0  0
 28 29  1  0  0  0  0
  3 30  1  0  0  0  0
 29 30  2  0  0  0  0
 30 31  1  0  0  0  0
 31 32  1  0  0  0  0
 31 33  2  0  0  0  0
 29 34  1  0  0  0  0
M  END
$$$$
