
     RDKit          3D

 60 63  0  0  0  0  0  0  0  0999 V2000
    0.2470    1.3180  -13.3090 C   0  0  0  0  0  0  0  0  0  0  0  0
   -0.6730    1.7690  -12.2330 C   0  0  0  0  0  0  0  0  0  0  0  0
   -1.8420    1.1110  -12.0940 N   0  0  0  0  0  0  0  0  0  0  0  0
   -2.7450    1.4420  -11.1500 C   0  0  0  0  0  0  0  0  0  0  0  0
   -3.9740    0.7550  -10.9970 N   0  0  0  0  0  0  0  0  0  0  0  0
   -5.0960    1.5050  -10.5900 C   0  0  0  0  0  0  0  0  0  0  0  0
   -6.2630    1.6970  -10.9270 N   0  0  0  0  0  0  0  0  0  0  0  0
   -7.1220    2.4790  -10.3470 C   0  0  0  0  0  0  0  0  0  0  0  0
   -6.7100    3.1630   -9.2560 C   0  0  0  0  0  0  0  0  0  0  0  0
   -7.3610    4.1060   -8.3630 C   0  0  0  0  0  0  0  0  0  0  0  0
   -8.5460    4.4350   -8.6100 O   0  0  0  0  0  0  0  0  0  0  0  0
   -6.6960    4.6540   -7.2340 N   0  0  0  0  0  0  0  0  0  0  0  0
   -7.3830    5.5660   -6.4060 C   0  0  0  0  0  0  0  0  0  0  0  0
   -8.0090    5.1270   -5.2520 C   0  0  0  0  0  0  0  0  0  0  0  0
   -7.9290    3.6800   -4.9290 C   0  0  0  0  0  0  0  0  0  0  0  0
   -8.6810    6.0150   -4.4390 C   0  0  0  0  0  0  0  0  0  0  0  0
   -8.7630    7.3620   -4.7280 C   0  0  0  0  0  0  0  0  0  0  0  0
   -8.1410    7.8070   -5.8750 C   0  0  0  0  0  0  0  0  0  0  0  0
   -7.4660    6.9080   -6.6910 C   0  0  0  0  0  0  0  0  0  0  0  0
   -6.6770    7.4850   -8.1500 Cl  0  0  0  0  0  0  0  0  0  0  0  0
   -4.9900    2.6240   -9.0900 S   0  0  0  0  0  0  0  0  0  0  0  0
   -2.4390    2.4940  -10.3130 C   0  0  0  0  0  0  0  0  0  0  0  0
   -1.2650    3.1750  -10.4340 C   0  0  0  0  0  0  0  0  0  0  0  0
   -0.9830    4.2420   -9.5660 N   0  0  0  0  0  0  0  0  0  0  0  0
   -0.2790    5.4020  -10.0420 C   0  0  0  0  0  0  0  0  0  0  0  0
    0.1980    6.2470   -8.8590 C   0  0  0  0  0  0  0  0  0  0  0  0
   -0.8890    6.6090   -7.9940 N   0  0  0  0  0  4  0  0  0  0  0  0
   -0.3980    7.0030   -6.6640 C   0  0  0  0  0  0  0  0  0  0  0  0
    0.8320    6.1880   -6.3310 C   0  0  0  0  0  0  0  0  0  0  0  0
    0.5070    5.2950   -5.3110 O   0  0  0  0  0  0  0  0  0  0  0  0
   -1.9040    5.5880   -7.8560 C   0  0  0  0  0  0  0  0  0  0  0  0
   -1.3890    4.2040   -8.1840 C   0  0  0  0  0  0  0  0  0  0  0  0
   -0.4060    2.7780  -11.4130 N   0  0  0  0  0  0  0  0  0  0  0  0
    1.1484    0.8761  -12.8594 H   0  0  0  0  0  0  0  0  0  0  0  0
   -0.2585    0.5655  -13.9321 H   0  0  0  0  0  0  0  0  0  0  0  0
    0.5322    2.1785  -13.9321 H   0  0  0  0  0  0  0  0  0  0  0  0
   -4.0640   -0.2470  -11.1720 H   0  0  0  0  0  0  0  0  0  0  0  0
   -8.1482    2.5813  -10.7296 H   0  0  0  0  0  0  0  0  0  0  0  0
   -5.7020    4.3460   -7.0700 H   0  0  0  0  0  0  0  0  0  0  0  0
   -7.9217    3.5479   -3.8370 H   0  0  0  0  0  0  0  0  0  0  0  0
   -8.7998    3.1604   -5.3554 H   0  0  0  0  0  0  0  0  0  0  0  0
   -7.0062    3.2596   -5.3554 H   0  0  0  0  0  0  0  0  0  0  0  0
   -9.1687    5.6367   -3.5285 H   0  0  0  0  0  0  0  0  0  0  0  0
   -9.3047    8.0550   -4.0675 H   0  0  0  0  0  0  0  0  0  0  0  0
   -8.1792    8.8730   -6.1438 H   0  0  0  0  0  0  0  0  0  0  0  0
   -3.1561    2.7891   -9.5328 H   0  0  0  0  0  0  0  0  0  0  0  0
    0.5904    5.0824  -10.6353 H   0  0  0  0  0  0  0  0  0  0  0  0
   -0.9558    6.0041  -10.6660 H   0  0  0  0  0  0  0  0  0  0  0  0
    0.9355    5.6694   -8.2824 H   0  0  0  0  0  0  0  0  0  0  0  0
    0.6443    7.1712   -9.2549 H   0  0  0  0  0  0  0  0  0  0  0  0
   -1.3940    7.4810   -8.3410 H   0  0  0  0  0  0  0  0  0  0  0  0
   -0.1416    8.0727   -6.6677 H   0  0  0  0  0  0  0  0  0  0  0  0
   -1.1790    6.8212   -5.9110 H   0  0  0  0  0  0  0  0  0  0  0  0
    1.1606    5.6313   -7.2210 H   0  0  0  0  0  0  0  0  0  0  0  0
    1.6475    6.8511   -6.0064 H   0  0  0  0  0  0  0  0  0  0  0  0
    0.9560    5.6040   -4.4860 H   0  0  0  0  0  0  0  0  0  0  0  0
   -2.2674    5.5912   -6.8178 H   0  0  0  0  0  0  0  0  0  0  0  0
   -2.7082    5.8207   -8.5695 H   0  0  0  0  0  0  0  0  0  0  0  0
   -0.5317    3.9542   -7.5416 H   0  0  0  0  0  0  0  0  0  0  0  0
   -2.1610    3.4390   -8.0144 H   0  0  0  0  0  0  0  0  0  0  0  0
  1  2  1  0
  2  3  2  0
  3  4  1  0
  4  5  1  0
  5  6  1  0
  6  7  2  0
  7  8  1  0
  8  9  2  0
  9 10  1  0
 10 11  2  0
 10 12  1  0
 12 13  1  0
 13 14  2  0
 14 15  1  0
 14 16  1  0
 16 17  2  0
 17 18  1  0
 18 19  2  0
 19 20  1  0
  9 21  1  0
  4 22  2  0
 22 23  1  0
 23 24  1  0
 24 25  1  0
 25 26  1  0
 26 27  1  0
 27 28  1  0
 28 29  1  0
 29 30  1  0
 27 31  1  0
 31 32  1  0
 23 33  2  0
 33  2  1  0
 21  6  1  0
 32 24  1  0
 19 13  1  0
  1 34  1  0
  1 35  1  0
  1 36  1  0
  5 37  1  0
  8 38  1  0
 12 39  1  0
 15 40  1  0
 15 41  1  0
 15 42  1  0
 16 43  1  0
 17 44  1  0
 18 45  1  0
 22 46  1  0
 25 47  1  0
 25 48  1  0
 26 49  1  0
 26 50  1  0
 27 51  1  0
 28 52  1  0
 28 53  1  0
 29 54  1  0
 29 55  1  0
 30 56  1  0
 31 57  1  0
 31 58  1  0
 32 59  1  0
 32 60  1  0
M  CHG  1  27   1
M  END
