Z2642913677
     RDKit          3D

 29 32  0  0  0  0  0  0  0  0999 V2000
   -9.7580    1.3877  -12.0126 C   0  0  0  0  0  0  0  0  0  0  0  0
   -9.4527    0.4497  -13.0113 C   0  0  0  0  0  0  0  0  0  0  0  0
   -8.1390    0.0126  -13.1991 C   0  0  0  0  0  0  0  0  0  0  0  0
   -7.1005    0.5070  -12.3972 C   0  0  0  0  0  0  0  0  0  0  0  0
   -7.4060    1.4341  -11.3915 C   0  0  0  0  0  0  0  0  0  0  0  0
   -8.7189    1.8725  -11.2025 C   0  0  0  0  0  0  0  0  0  0  0  0
   -5.7184    0.0100  -12.5972 C   0  0  0  0  0  0  0  0  0  0  0  0
   -5.5421   -1.0255  -13.2965 O   0  0  0  0  0  0  0  0  0  0  0  0
   -4.5739    0.6599  -12.0166 N   0  0  0  0  0  0  0  0  0  0  0  0
   -4.5442    2.0481  -11.5948 C   0  0  0  0  0  0  0  0  0  0  0  0
   -3.0869    2.3773  -11.3315 C   0  0  0  0  0  0  0  0  0  0  0  0
   -2.3417    1.0486  -11.3417 C   0  0  1  0  0  0  0  0  0  0  0  0
   -3.2694    0.0297  -11.9781 C   0  0  0  0  0  0  0  0  0  0  0  0
   -1.0432    1.1494  -12.0791 C   0  0  0  0  0  0  0  0  0  0  0  0
   -0.9928    1.0866  -13.4810 C   0  0  0  0  0  0  0  0  0  0  0  0
    0.2336    1.1830  -14.1449 C   0  0  0  0  0  0  0  0  0  0  0  0
    1.4136    1.3421  -13.4129 C   0  0  0  0  0  0  0  0  0  0  0  0
    1.3679    1.4050  -12.0171 C   0  0  0  0  0  0  0  0  0  0  0  0
    2.5401    1.5629  -11.2910 O   0  0  0  0  0  0  0  0  0  0  0  0
    0.1417    1.3087  -11.3522 C   0  0  0  0  0  0  0  0  0  0  0  0
  -12.4734    2.9312  -10.0829 C   0  0  1  0  0  0  0  0  0  0  0  0
  -13.6628    2.0817  -10.5624 C   0  0  0  0  0  0  0  0  0  0  0  0
  -13.5779    1.7172  -12.0433 C   0  0  0  0  0  0  0  0  0  0  0  0
  -12.2364    1.0515  -12.3435 C   0  0  0  0  0  0  0  0  0  0  0  0
  -11.1128    1.8380  -11.8172 N   0  0  0  0  0  0  0  0  0  0  0  0
  -11.3764    3.1086  -11.1368 C   0  0  0  0  0  0  0  0  0  0  0  0
  -13.7001    5.1209  -10.4241 N   0  0  0  0  0  0  0  0  0  0  0  0
  -12.9389    4.2579   -9.5844 C   0  0  0  0  0  0  0  0  0  0  0  0
  -12.6556    4.6174   -8.4125 O   0  0  0  0  0  0  0  0  0  0  0  0
 27 28  1  0
 28 29  2  0
 21 28  1  6
 21 22  1  0
 22 23  1  0
 23 24  1  0
 24 25  1  0
 25 26  1  0
 25  1  1  0
  1  2  2  0
  2  3  1  0
  3  4  2  0
  4  5  1  0
  5  6  2  0
  4  7  1  0
  7  8  2  0
  7  9  1  0
  9 10  1  0
 10 11  1  0
 11 12  1  0
 12 13  1  0
 12 14  1  6
 14 15  2  0
 15 16  1  0
 16 17  2  0
 17 18  1  0
 18 19  1  0
 18 20  2  0
 26 21  1  0
  6  1  1  0
 13  9  1  0
 20 14  1  0
M  END
>  <minimizedAffinity>  (1) 
-10.05994

>  <minimizedRMSD>  (1) 
0.60140

$$$$
